file 794474 1740301818                                          
version 3
run General-0-20250223-12:38:54-19252
attr configname General
attr datetime 20250223-12:38:54
attr datetimef 20250223-123854
attr experiment General
attr inifile omnetpp.ini
attr iterationvars ""
attr iterationvarsd ""
attr iterationvarsf ""
attr measurement ""
attr network sdnproject.WiredAndWirelessHostsWithAP
attr processid 19252
attr repetition 0
attr replication #0
attr resultdir results
attr runnumber 0
attr seedset 0
config image-path ../../../../inet4.5/images
config network sdnproject.WiredAndWirelessHostsWithAP
config sim-time-limit 400s
config **.addDefaultRoutes true
config **.*Host*.numApps 3
config **.*Host*.app[0].typename UdpEchoApp
config **.*Host*.app[0].localPort 1000
config **.*Host*.app[*].typename PingApp
config **.wirelessHost1.app[1].destAddresses "\"wiredHost8\""
config **.*Host*.app[1..].destPort 1000
config **.initialZ 0m
config *.bts.radioMedium.txPower 30mW
config *.bts.radioMedium.centerFrequency 28GHz
config *.bts.wlan[0].radioMedium "\"IRadioMedium\""
config *.bts.wlan[0].radio.transmitter.communicationRange 500m
config *.radioMedium.phyMode "\"OFDM\""
config *.wirelessHost1.mobility.typename TractorMobility
config *.wirelessHost1.mobility.x1 2000m
config *.wirelessHost1.mobility.y1 1542m
config *.wirelessHost1.mobility.x2 2100m
config *.wirelessHost1.mobility.y2 1800m
config *.wirelessHost1.mobility.rowCount 5
config *.wirelessHost1.mobility.speed 50mps
config *.wirelessHost2.mobility.typename TractorMobility
config *.wirelessHost2.mobility.x1 967m
config *.wirelessHost2.mobility.y1 1542m
config *.wirelessHost2.mobility.x2 1300m
config *.wirelessHost2.mobility.y2 1600m
config *.wirelessHost2.mobility.rowCount 6
config *.wirelessHost2.mobility.speed 80mps
config *.wirelessHost3.mobility.typename TractorMobility
config *.wirelessHost3.mobility.x1 1179m
config *.wirelessHost3.mobility.y1 700m
config *.wirelessHost3.mobility.x2 600m
config *.wirelessHost3.mobility.y2 300m
config *.wirelessHost3.mobility.rowCount 6
config *.wirelessHost3.mobility.speed 90mps
config *.wirelessHost4.mobility.typename TractorMobility
config *.wirelessHost4.mobility.x1 1416m
config *.wirelessHost4.mobility.y1 911m
config *.wirelessHost4.mobility.x2 1200m
config *.wirelessHost4.mobility.y2 500m
config *.wirelessHost4.mobility.rowCount 7
config *.wirelessHost4.mobility.speed 100mps
config *.bts.wlan[0].radio.displayCommunicationRange true
config *.visualizer.mediumVisualizer.displaySignals true
config *.visualizer.physicalLinkVisualizer.displayLinks true

vector 0 WiredAndWirelessHostsWithAP.wirelessHost1.lo[0].lo rcvdPkFromHl:vector(packetBytes) ETV
attr interpolationmode none
attr recordingmode vector(packetBytes)
attr source packetReceivedFromUpper
attr title "packets received from higher layer, packetBytes"
vector 1 WiredAndWirelessHostsWithAP.wirelessHost1.lo[0].lo passedUpPk:vector(packetBytes) ETV
attr interpolationmode none
attr recordingmode vector(packetBytes)
attr source packetSentToUpper
attr title "packets passed to higher layer, packetBytes"
vector 2 WiredAndWirelessHostsWithAP.wirelessHost1.lo[0] packetDropInterfaceDown:vector(packetBytes) ETV
attr interpolationmode none
attr recordingmode vector(packetBytes)
attr source packetDropReasonIsInterfaceDown(packetDropped)
attr title "packet drops: interface down, packetBytes"
vector 3 WiredAndWirelessHostsWithAP.wirelessHost1.lo[0] packetDropNoCarrier:vector(packetBytes) ETV
attr interpolationmode none
attr recordingmode vector(packetBytes)
attr source packetDropReasonIsNoCarrier(packetDropped)
attr title "packet drops: no carrier, packetBytes"
vector 4 WiredAndWirelessHostsWithAP.wirelessHost1.wlan[0].agent sentRequest:vector ETV
attr recordingmode vector
attr title "sent requests"
vector 5 WiredAndWirelessHostsWithAP.wirelessHost1.wlan[0].agent acceptConfirm:vector ETV
attr recordingmode vector
attr title "accepted confirms"
vector 6 WiredAndWirelessHostsWithAP.wirelessHost1.wlan[0].agent dropConfirm:vector ETV
attr recordingmode vector
attr title "dropped confirms"
vector 7 WiredAndWirelessHostsWithAP.wirelessHost1.wlan[0].mac.dcf.channelAccess.pendingQueue queueLength:vector ETV
attr autoWarmupFilter false
attr interpolationmode sample-hold
attr recordingmode vector
attr source "warmup(atomic(constant0(packetPushEnded) + count(packetPushStarted) - count(packetPulled) - count(packetRemoved) - count(packetDropped)))"
attr title "queue length"
attr unit pk
vector 8 WiredAndWirelessHostsWithAP.wirelessHost1.wlan[0].mac.dcf.channelAccess.pendingQueue queueBitLength:vector ETV
attr autoWarmupFilter false
attr interpolationmode sample-hold
attr recordingmode vector
attr source "warmup(atomic(constant0(packetPushEnded) + sum(packetLength(packetPushStarted)) - sum(packetLength(packetPulled)) - sum(packetLength(packetRemoved)) - sum(packetLength(packetDropped))))"
attr title "queue bit length"
attr unit b
vector 9 WiredAndWirelessHostsWithAP.wirelessHost1.wlan[0].mac.dcf.channelAccess.pendingQueue queueingTime:vector ETV
attr interpolationmode none
attr recordingmode vector
attr source queueingTime(packetPulled)
attr title "queueing times"
attr unit s
vector 10 WiredAndWirelessHostsWithAP.wirelessHost1.wlan[0].mac.dcf.channelAccess.pendingQueue incomingPacketLengths:vector ETV
attr interpolationmode none
attr recordingmode vector
attr source packetLength(packetPushStarted)
attr title "incoming packet lengths"
attr unit b
vector 11 WiredAndWirelessHostsWithAP.wirelessHost1.wlan[0].mac.dcf.channelAccess.pendingQueue incomingDataRate:vector ETV
attr interpolationmode linear
attr recordingmode vector
attr source throughput(packetPushStarted)
attr title "incoming datarate"
attr unit bps
vector 12 WiredAndWirelessHostsWithAP.wirelessHost1.wlan[0].mac.dcf.channelAccess.pendingQueue outgoingPacketLengths:vector ETV
attr interpolationmode none
attr recordingmode vector
attr source packetLength(packetPulled)
attr title "outgoing packet lengths"
attr unit b
vector 13 WiredAndWirelessHostsWithAP.wirelessHost1.wlan[0].mac.dcf.channelAccess.pendingQueue outgoingDataRate:vector ETV
attr interpolationmode linear
attr recordingmode vector
attr source throughput(packetPulled)
attr title "outgoing datarate"
attr unit bps
vector 14 WiredAndWirelessHostsWithAP.wirelessHost1.wlan[0].mac.dcf.channelAccess.pendingQueue droppedPacketLengthsQueueOverflow:vector ETV
attr interpolationmode none
attr recordingmode vector
attr source packetLength(packetDropReasonIsQueueOverflow(packetDropped))
attr title "dropped packet lengths: queue overflow"
attr unit b
vector 15 WiredAndWirelessHostsWithAP.wirelessHost1.wlan[0].mac.dcf.channelAccess.pendingQueue flowQueueingTime:vector ETV
attr interpolationmode none
attr recordingmode vector
attr source queueingTime(demuxFlow(packetPulled))
attr title "flow queueing times"
attr unit s
vector 16 WiredAndWirelessHostsWithAP.wirelessHost1.wlan[0].mac.dcf.channelAccess.pendingQueue flowIncomingDataRate:vector ETV
attr interpolationmode linear
attr recordingmode vector
attr source throughput(flowPacketLength(demuxFlow(packetPushStarted)))
attr title "flow specific incoming data rate"
attr unit bps
vector 17 WiredAndWirelessHostsWithAP.wirelessHost1.wlan[0].mac.dcf.channelAccess.pendingQueue flowOutgoingDataRate:vector ETV
attr interpolationmode linear
attr recordingmode vector
attr source throughput(flowPacketLength(demuxFlow(packetPulled)))
attr title "flow specific outgoing data rate"
attr unit bps
vector 18 WiredAndWirelessHostsWithAP.wirelessHost1.wlan[0].mac.dcf.channelAccess.inProgressFrames queueingTime:vector ETV
attr interpolationmode none
attr recordingmode vector
attr source queueingTime(packetDequeued)
attr title "queueing times"
vector 19 WiredAndWirelessHostsWithAP.wirelessHost1.wlan[0].mac.dcf.channelAccess.inProgressFrames queueLength:vector ETV
attr autoWarmupFilter false
attr interpolationmode sample-hold
attr recordingmode vector
attr source "warmup(count(packetEnqueued) - count(packetDequeued))"
attr title "queue length"
vector 20 WiredAndWirelessHostsWithAP.wirelessHost1.wlan[0].mac.dcf.channelAccess.contention backoffPeriodGenerated:vector ETV
attr interpolationmode none
attr recordingmode vector
attr title "backoff periods"
vector 21 WiredAndWirelessHostsWithAP.wirelessHost1.wlan[0].mac.dcf.channelAccess.contention backoffActive:vector ETV
attr autoWarmupFilter false
attr interpolationmode sample-hold
attr recordingmode vector
attr source warmup(count(backoffStarted)-count(backoffStopped))
attr title "backoff active"
vector 22 WiredAndWirelessHostsWithAP.wirelessHost1.wlan[0].mac.dcf.channelAccess.contention stateChanged:vector ETV
attr enum IDLE,DEFER,IFS_AND_BACKOFF
attr interpolationmode none
attr recordingmode vector
attr title "contention state changed"
attr type enum
vector 23 WiredAndWirelessHostsWithAP.wirelessHost1.wlan[0].mac.dcf.recipientMacDataService packetDropDuplicateDetected:vector(packetBytes) ETV
attr interpolationmode none
attr recordingmode vector(packetBytes)
attr source packetDropReasonIsDuplicateDetected(packetDropped)
attr title "packet drops: duplicate detected, packetBytes"
vector 24 WiredAndWirelessHostsWithAP.wirelessHost1.wlan[0].mac.dcf.recoveryProcedure contentionWindowChanged:vector ETV
attr interpolationmode sample-hold
attr recordingmode vector
attr title "contention window"
vector 25 WiredAndWirelessHostsWithAP.wirelessHost1.wlan[0].mac.dcf packetSentToPeer:vector(packetBytes) ETV
attr interpolationmode none
attr recordingmode vector(packetBytes)
attr title "packets sent, packetBytes"
vector 26 WiredAndWirelessHostsWithAP.wirelessHost1.wlan[0].mac.dcf packetSentToPeerUnicast:vector(packetBytes) ETV
attr interpolationmode none
attr recordingmode vector(packetBytes)
attr source ieee80211Unicast(packetSentToPeer)
attr title "packets sent: unicast, packetBytes"
vector 27 WiredAndWirelessHostsWithAP.wirelessHost1.wlan[0].mac.dcf packetSentToPeerMulticast:vector(packetBytes) ETV
attr interpolationmode none
attr recordingmode vector(packetBytes)
attr source ieee80211Multicast(packetSentToPeer)
attr title "packets sent: multicast, packetBytes"
vector 28 WiredAndWirelessHostsWithAP.wirelessHost1.wlan[0].mac.dcf packetSentToPeerBroadcast:vector(packetBytes) ETV
attr interpolationmode none
attr recordingmode vector(packetBytes)
attr source ieee80211Broadcast(packetSentToPeer)
attr title "packets sent: broadcast , packetBytes"
vector 29 WiredAndWirelessHostsWithAP.wirelessHost1.wlan[0].mac.dcf packetSentToPeerWithRetry:vector(packetBytes) ETV
attr interpolationmode none
attr recordingmode vector(packetBytes)
attr source ieee80211Retry(packetSentToPeer)
attr title "packets sent: with retry, packetBytes"
vector 30 WiredAndWirelessHostsWithAP.wirelessHost1.wlan[0].mac.dcf packetSentToPeerWithoutRetry:vector(packetBytes) ETV
attr interpolationmode none
attr recordingmode vector(packetBytes)
attr source ieee80211NotRetry(packetSentToPeer)
attr title "packets sent: without retry, packetBytes"
vector 31 WiredAndWirelessHostsWithAP.wirelessHost1.wlan[0].mac.dcf packetReceivedFromPeer:vector(packetBytes) ETV
attr interpolationmode none
attr recordingmode vector(packetBytes)
attr title "packets received, packetBytes"
vector 32 WiredAndWirelessHostsWithAP.wirelessHost1.wlan[0].mac.dcf packetReceivedFromPeerUnicast:vector(packetBytes) ETV
attr interpolationmode none
attr recordingmode vector(packetBytes)
attr source ieee80211Unicast(packetReceivedFromPeer)
attr title "packets received: unicast, packetBytes"
vector 33 WiredAndWirelessHostsWithAP.wirelessHost1.wlan[0].mac.dcf packetReceivedFromPeerMulticast:vector(packetBytes) ETV
attr interpolationmode none
attr recordingmode vector(packetBytes)
attr source ieee80211Multicast(packetReceivedFromPeer)
attr title "packets received: multicast, packetBytes"
vector 34 WiredAndWirelessHostsWithAP.wirelessHost1.wlan[0].mac.dcf packetReceivedFromPeerBroadcast:vector(packetBytes) ETV
attr interpolationmode none
attr recordingmode vector(packetBytes)
attr source ieee80211Broadcast(packetReceivedFromPeer)
attr title "packets received: broadcast, packetBytes"
vector 35 WiredAndWirelessHostsWithAP.wirelessHost1.wlan[0].mac.dcf packetReceivedFromPeerWithRetry:vector(packetBytes) ETV
attr interpolationmode none
attr recordingmode vector(packetBytes)
attr source ieee80211Retry(packetReceivedFromPeer)
attr title "packets received: with retry, packetBytes"
vector 36 WiredAndWirelessHostsWithAP.wirelessHost1.wlan[0].mac.dcf packetReceivedFromPeerWithoutRetry:vector(packetBytes) ETV
attr interpolationmode none
attr recordingmode vector(packetBytes)
attr source ieee80211NotRetry(packetReceivedFromPeer)
attr title "packets received: without retry, packetBytes"
vector 37 WiredAndWirelessHostsWithAP.wirelessHost1.wlan[0].mac.dcf packetDrop:vector(packetBytes) ETV
attr interpolationmode none
attr recordingmode vector(packetBytes)
attr source packetDropped
attr title "packet drops, packetBytes"
vector 38 WiredAndWirelessHostsWithAP.wirelessHost1.wlan[0].mac.dcf packetDropNotAddressedToUs:vector(packetBytes) ETV
attr interpolationmode none
attr recordingmode vector(packetBytes)
attr source packetDropReasonIsNotAddressedToUs(packetDropped)
attr title "packet drops: not addressed to us, packetBytes"
vector 39 WiredAndWirelessHostsWithAP.wirelessHost1.wlan[0].mac.dcf packetDropQueueOverflow:vector(packetBytes) ETV
attr interpolationmode none
attr recordingmode vector(packetBytes)
attr source packetDropReasonIsQueueOverflow(packetDropped)
attr title "packet drops: queue overflow, packetBytes"
vector 40 WiredAndWirelessHostsWithAP.wirelessHost1.wlan[0].mac.dcf packetDropRetryLimitReached:vector(packetBytes) ETV
attr interpolationmode none
attr recordingmode vector(packetBytes)
attr source packetDropReasonIsRetryLimitReached(packetDropped)
attr title "packet drops: retry limit reached, packetBytes"
vector 41 WiredAndWirelessHostsWithAP.wirelessHost1.wlan[0].mac.dcf frameSequenceActive:vector ETV
attr autoWarmupFilter false
attr interpolationmode sample-hold
attr recordingmode vector
attr source warmup(count(frameSequenceStarted)-count(frameSequenceFinished))
attr title "frame sequence active"
vector 42 WiredAndWirelessHostsWithAP.wirelessHost1.wlan[0].mac.dcf datarateSelected:vector ETV
attr interpolationmode none
attr recordingmode vector
attr title "datarates selected"
vector 43 WiredAndWirelessHostsWithAP.wirelessHost1.wlan[0].mac.rx nav:vector ETV
attr interpolationmode linear
attr recordingmode vector
attr source navChanged
attr title "network allocation vector"
vector 44 WiredAndWirelessHostsWithAP.wirelessHost1.wlan[0].mac packetSentToUpper:vector(packetBytes) ETV
attr interpolationmode none
attr recordingmode vector(packetBytes)
attr title "packets sent to upper layer, packetBytes"
vector 45 WiredAndWirelessHostsWithAP.wirelessHost1.wlan[0].mac packetSentToLower:vector(packetBytes) ETV
attr interpolationmode none
attr recordingmode vector(packetBytes)
attr title "packets sent to lower layer, packetBytes"
vector 46 WiredAndWirelessHostsWithAP.wirelessHost1.wlan[0].mac packetReceivedFromUpper:vector(packetBytes) ETV
attr interpolationmode none
attr recordingmode vector(packetBytes)
attr title "packets received from upper layer, packetBytes"
vector 47 WiredAndWirelessHostsWithAP.wirelessHost1.wlan[0].mac packetReceivedFromLower:vector(packetBytes) ETV
attr interpolationmode none
attr recordingmode vector(packetBytes)
attr title "packets received from lower layer, packetBytes"
vector 48 WiredAndWirelessHostsWithAP.wirelessHost1.wlan[0].mac packetDrop:vector(packetBytes) ETV
attr interpolationmode none
attr recordingmode vector(packetBytes)
attr source packetDropped
attr title "packet drops, packetBytes"
vector 49 WiredAndWirelessHostsWithAP.wirelessHost1.wlan[0].mac packetDropIncorrectlyReceived:vector(packetBytes) ETV
attr interpolationmode none
attr recordingmode vector(packetBytes)
attr source packetDropReasonIsIncorrectlyReceived(packetDropped)
attr title "packet drops: incorrectly received, packetBytes"
vector 50 WiredAndWirelessHostsWithAP.wirelessHost1.wlan[0].mac packetDropNotAddressedToUs:vector(packetBytes) ETV
attr interpolationmode none
attr recordingmode vector(packetBytes)
attr source packetDropReasonIsNotAddressedToUs(packetDropped)
attr title "packet drops: not addressed to us, packetBytes"
vector 51 WiredAndWirelessHostsWithAP.wirelessHost1.wlan[0].mac packetDropQueueOverflow:vector(packetBytes) ETV
attr interpolationmode none
attr recordingmode vector(packetBytes)
attr source packetDropReasonIsQueueOverflow(packetDropped)
attr title "packet drops: queue overflow, packetBytes"
vector 52 WiredAndWirelessHostsWithAP.wirelessHost1.wlan[0].mac packetDropRetryLimitReached:vector(packetBytes) ETV
attr interpolationmode none
attr recordingmode vector(packetBytes)
attr source packetDropReasonIsRetryLimitReached(packetDropped)
attr title "packet drops: retry limit reached, packetBytes"
vector 53 WiredAndWirelessHostsWithAP.wirelessHost1.wlan[0].mac packetDropDuplicateDetected:vector(packetBytes) ETV
attr interpolationmode none
attr recordingmode vector(packetBytes)
attr source packetDropReasonIsDuplicateDetected(packetDropped)
attr title "packet drops: duplicate detected, packetBytes"
vector 54 WiredAndWirelessHostsWithAP.wirelessHost1.wlan[0].mac packetDropOther:vector(packetBytes) ETV
attr interpolationmode none
attr recordingmode vector(packetBytes)
attr source packetDropReasonIsOther(packetDropped)
attr title "packet drops: other, packetBytes"
vector 55 WiredAndWirelessHostsWithAP.wirelessHost1.wlan[0].radio radioMode:vector ETV
attr interpolationmode sample-hold
attr recordingmode vector
attr source radioModeChanged
attr title "Radio mode"
vector 56 WiredAndWirelessHostsWithAP.wirelessHost1.wlan[0].radio receptionState:vector ETV
attr interpolationmode sample-hold
attr recordingmode vector
attr source receptionStateChanged
attr title "Radio reception state"
vector 57 WiredAndWirelessHostsWithAP.wirelessHost1.wlan[0].radio transmissionState:vector ETV
attr interpolationmode sample-hold
attr recordingmode vector
attr source transmissionStateChanged
attr title "Radio transmission state"
vector 58 WiredAndWirelessHostsWithAP.wirelessHost1.wlan[0].radio radioChannel:vector ETV
attr interpolationmode sample-hold
attr recordingmode vector
attr source radioChannelChanged
attr title "Radio channel"
vector 59 WiredAndWirelessHostsWithAP.wirelessHost1.wlan[0] packetDropInterfaceDown:vector(packetBytes) ETV
attr interpolationmode none
attr recordingmode vector(packetBytes)
attr source packetDropReasonIsInterfaceDown(packetDropped)
attr title "packet drops: interface down, packetBytes"
vector 60 WiredAndWirelessHostsWithAP.wirelessHost1.wlan[0] packetDropNoCarrier:vector(packetBytes) ETV
attr interpolationmode none
attr recordingmode vector(packetBytes)
attr source packetDropReasonIsNoCarrier(packetDropped)
attr title "packet drops: no carrier, packetBytes"
vector 61 WiredAndWirelessHostsWithAP.wirelessHost1.ipv4.ip packetDropAddressResolutionFailed:vector(packetBytes) ETV
attr interpolationmode none
attr recordingmode vector(packetBytes)
attr source packetDropReasonIsAddressResolutionFailed(packetDropped)
attr title "packet drop: address resolution failed, packetBytes"
vector 62 WiredAndWirelessHostsWithAP.wirelessHost1.ipv4.ip packetDropHopLimitReached:vector(packetBytes) ETV
attr interpolationmode none
attr recordingmode vector(packetBytes)
attr source packetDropReasonIsHopLimitReached(packetDropped)
attr title "packet drop: hop limit reached, packetBytes"
vector 63 WiredAndWirelessHostsWithAP.wirelessHost1.ipv4.ip packetDropForwardingDisabled:vector(packetBytes) ETV
attr interpolationmode none
attr recordingmode vector(packetBytes)
attr source packetDropReasonIsForwardingDisabled(packetDropped)
attr title "packet drop: forwarding disabled, packetBytes"
vector 64 WiredAndWirelessHostsWithAP.wirelessHost1.ipv4.ip packetDropNoInterfaceFound:vector(packetBytes) ETV
attr interpolationmode none
attr recordingmode vector(packetBytes)
attr source packetDropReasonIsNoInterfaceFound(packetDropped)
attr title "packet drop: no interface found, packetBytes"
vector 65 WiredAndWirelessHostsWithAP.wirelessHost1.ipv4.ip packetDropNoRouteFound:vector(packetBytes) ETV
attr interpolationmode none
attr recordingmode vector(packetBytes)
attr source packetDropReasonIsNoRouteFound(packetDropped)
attr title "packet drop: no route found, packetBytes"
vector 66 WiredAndWirelessHostsWithAP.wirelessHost1.ipv4.ip packetDropUndefined:vector(packetBytes) ETV
attr interpolationmode none
attr recordingmode vector(packetBytes)
attr source packetDropReasonIsUndefined(packetDropped)
attr title "packet drop: undefined, packetBytes"
vector 67 WiredAndWirelessHostsWithAP.wirelessHost1.ipv4.arp arpRequestSent:vector(packetBytes) ETV
attr recordingmode vector(packetBytes)
attr source arpRequestSent
attr title "ARP request sent, packetBytes"
vector 68 WiredAndWirelessHostsWithAP.wirelessHost1.ipv4.arp arpReplySent:vector(packetBytes) ETV
attr recordingmode vector(packetBytes)
attr source arpReplySent
attr title "ARP replies sent, packetBytes"
vector 69 WiredAndWirelessHostsWithAP.wirelessHost1.udp packetSent:vector(packetBytes) ETV
attr interpolationmode none
attr recordingmode vector(packetBytes)
attr source packetSent
attr title "packets sent, packetBytes"
vector 70 WiredAndWirelessHostsWithAP.wirelessHost1.udp packetReceived:vector(packetBytes) ETV
attr interpolationmode none
attr recordingmode vector(packetBytes)
attr source packetReceived
attr title "packets received, packetBytes"
vector 71 WiredAndWirelessHostsWithAP.wirelessHost1.udp passedUpPk:vector(count) ETV
attr interpolationmode none
attr recordingmode vector(count)
attr source packetSentToUpper
attr title "packets passed up, count"
vector 72 WiredAndWirelessHostsWithAP.wirelessHost1.udp droppedPkWrongPort:vector(count) ETV
attr interpolationmode none
attr recordingmode vector(count)
attr source packetDropReasonIsNoPortFound(packetDropped)
attr title "packets dropped (wrong port), count"
vector 73 WiredAndWirelessHostsWithAP.wirelessHost1.udp droppedPkBadChecksum:vector(count) ETV
attr interpolationmode none
attr recordingmode vector(count)
attr source packetDropReasonIsIncorrectlyReceived(packetDropped)
attr title "packets dropped (checksum error), count"
vector 74 WiredAndWirelessHostsWithAP.wirelessHost1.app[0] echoedPk:vector(packetBytes) ETV
attr interpolationmode none
attr recordingmode vector(packetBytes)
attr source packetSent
attr title "packets echoed, packetBytes"
vector 75 WiredAndWirelessHostsWithAP.wirelessHost1.app[1] rtt:vector ETV
attr interpolationmode none
attr recordingmode vector
attr title "ping round-trip time"
attr unit s
vector 76 WiredAndWirelessHostsWithAP.wirelessHost1.app[1] numLost:vector ETV
attr interpolationmode none
attr recordingmode vector
attr title "pings lost"
vector 77 WiredAndWirelessHostsWithAP.wirelessHost1.app[1] numOutOfOrderArrivals:vector ETV
attr interpolationmode none
attr recordingmode vector
attr title "ping out-of-order arrivals"
vector 78 WiredAndWirelessHostsWithAP.wirelessHost1.app[1] pingTxSeq:vector ETV
attr interpolationmode none
attr recordingmode vector
attr title "ping tx seq"
vector 79 WiredAndWirelessHostsWithAP.wirelessHost1.app[1] pingRxSeq:vector ETV
attr interpolationmode none
attr recordingmode vector
attr title "ping rx seq"
vector 80 WiredAndWirelessHostsWithAP.wirelessHost1.app[2] rtt:vector ETV
attr interpolationmode none
attr recordingmode vector
attr title "ping round-trip time"
attr unit s
vector 81 WiredAndWirelessHostsWithAP.wirelessHost1.app[2] numLost:vector ETV
attr interpolationmode none
attr recordingmode vector
attr title "pings lost"
vector 82 WiredAndWirelessHostsWithAP.wirelessHost1.app[2] numOutOfOrderArrivals:vector ETV
attr interpolationmode none
attr recordingmode vector
attr title "ping out-of-order arrivals"
vector 83 WiredAndWirelessHostsWithAP.wirelessHost1.app[2] pingTxSeq:vector ETV
attr interpolationmode none
attr recordingmode vector
attr title "ping tx seq"
vector 84 WiredAndWirelessHostsWithAP.wirelessHost1.app[2] pingRxSeq:vector ETV
attr interpolationmode none
attr recordingmode vector
attr title "ping rx seq"
vector 85 WiredAndWirelessHostsWithAP.wirelessHost2.lo[0].lo rcvdPkFromHl:vector(packetBytes) ETV
attr interpolationmode none
attr recordingmode vector(packetBytes)
attr source packetReceivedFromUpper
attr title "packets received from higher layer, packetBytes"
vector 86 WiredAndWirelessHostsWithAP.wirelessHost2.lo[0].lo passedUpPk:vector(packetBytes) ETV
attr interpolationmode none
attr recordingmode vector(packetBytes)
attr source packetSentToUpper
attr title "packets passed to higher layer, packetBytes"
vector 87 WiredAndWirelessHostsWithAP.wirelessHost2.lo[0] packetDropInterfaceDown:vector(packetBytes) ETV
attr interpolationmode none
attr recordingmode vector(packetBytes)
attr source packetDropReasonIsInterfaceDown(packetDropped)
attr title "packet drops: interface down, packetBytes"
vector 88 WiredAndWirelessHostsWithAP.wirelessHost2.lo[0] packetDropNoCarrier:vector(packetBytes) ETV
attr interpolationmode none
attr recordingmode vector(packetBytes)
attr source packetDropReasonIsNoCarrier(packetDropped)
attr title "packet drops: no carrier, packetBytes"
vector 89 WiredAndWirelessHostsWithAP.wirelessHost2.wlan[0].agent sentRequest:vector ETV
attr recordingmode vector
attr title "sent requests"
vector 90 WiredAndWirelessHostsWithAP.wirelessHost2.wlan[0].agent acceptConfirm:vector ETV
attr recordingmode vector
attr title "accepted confirms"
vector 91 WiredAndWirelessHostsWithAP.wirelessHost2.wlan[0].agent dropConfirm:vector ETV
attr recordingmode vector
attr title "dropped confirms"
vector 92 WiredAndWirelessHostsWithAP.wirelessHost2.wlan[0].mac.dcf.channelAccess.pendingQueue queueLength:vector ETV
attr autoWarmupFilter false
attr interpolationmode sample-hold
attr recordingmode vector
attr source "warmup(atomic(constant0(packetPushEnded) + count(packetPushStarted) - count(packetPulled) - count(packetRemoved) - count(packetDropped)))"
attr title "queue length"
attr unit pk
vector 93 WiredAndWirelessHostsWithAP.wirelessHost2.wlan[0].mac.dcf.channelAccess.pendingQueue queueBitLength:vector ETV
attr autoWarmupFilter false
attr interpolationmode sample-hold
attr recordingmode vector
attr source "warmup(atomic(constant0(packetPushEnded) + sum(packetLength(packetPushStarted)) - sum(packetLength(packetPulled)) - sum(packetLength(packetRemoved)) - sum(packetLength(packetDropped))))"
attr title "queue bit length"
attr unit b
vector 94 WiredAndWirelessHostsWithAP.wirelessHost2.wlan[0].mac.dcf.channelAccess.pendingQueue queueingTime:vector ETV
attr interpolationmode none
attr recordingmode vector
attr source queueingTime(packetPulled)
attr title "queueing times"
attr unit s
vector 95 WiredAndWirelessHostsWithAP.wirelessHost2.wlan[0].mac.dcf.channelAccess.pendingQueue incomingPacketLengths:vector ETV
attr interpolationmode none
attr recordingmode vector
attr source packetLength(packetPushStarted)
attr title "incoming packet lengths"
attr unit b
vector 96 WiredAndWirelessHostsWithAP.wirelessHost2.wlan[0].mac.dcf.channelAccess.pendingQueue incomingDataRate:vector ETV
attr interpolationmode linear
attr recordingmode vector
attr source throughput(packetPushStarted)
attr title "incoming datarate"
attr unit bps
vector 97 WiredAndWirelessHostsWithAP.wirelessHost2.wlan[0].mac.dcf.channelAccess.pendingQueue outgoingPacketLengths:vector ETV
attr interpolationmode none
attr recordingmode vector
attr source packetLength(packetPulled)
attr title "outgoing packet lengths"
attr unit b
vector 98 WiredAndWirelessHostsWithAP.wirelessHost2.wlan[0].mac.dcf.channelAccess.pendingQueue outgoingDataRate:vector ETV
attr interpolationmode linear
attr recordingmode vector
attr source throughput(packetPulled)
attr title "outgoing datarate"
attr unit bps
vector 99 WiredAndWirelessHostsWithAP.wirelessHost2.wlan[0].mac.dcf.channelAccess.pendingQueue droppedPacketLengthsQueueOverflow:vector ETV
attr interpolationmode none
attr recordingmode vector
attr source packetLength(packetDropReasonIsQueueOverflow(packetDropped))
attr title "dropped packet lengths: queue overflow"
attr unit b
vector 100 WiredAndWirelessHostsWithAP.wirelessHost2.wlan[0].mac.dcf.channelAccess.pendingQueue flowQueueingTime:vector ETV
attr interpolationmode none
attr recordingmode vector
attr source queueingTime(demuxFlow(packetPulled))
attr title "flow queueing times"
attr unit s
vector 101 WiredAndWirelessHostsWithAP.wirelessHost2.wlan[0].mac.dcf.channelAccess.pendingQueue flowIncomingDataRate:vector ETV
attr interpolationmode linear
attr recordingmode vector
attr source throughput(flowPacketLength(demuxFlow(packetPushStarted)))
attr title "flow specific incoming data rate"
attr unit bps
vector 102 WiredAndWirelessHostsWithAP.wirelessHost2.wlan[0].mac.dcf.channelAccess.pendingQueue flowOutgoingDataRate:vector ETV
attr interpolationmode linear
attr recordingmode vector
attr source throughput(flowPacketLength(demuxFlow(packetPulled)))
attr title "flow specific outgoing data rate"
attr unit bps
vector 103 WiredAndWirelessHostsWithAP.wirelessHost2.wlan[0].mac.dcf.channelAccess.inProgressFrames queueingTime:vector ETV
attr interpolationmode none
attr recordingmode vector
attr source queueingTime(packetDequeued)
attr title "queueing times"
vector 104 WiredAndWirelessHostsWithAP.wirelessHost2.wlan[0].mac.dcf.channelAccess.inProgressFrames queueLength:vector ETV
attr autoWarmupFilter false
attr interpolationmode sample-hold
attr recordingmode vector
attr source "warmup(count(packetEnqueued) - count(packetDequeued))"
attr title "queue length"
vector 105 WiredAndWirelessHostsWithAP.wirelessHost2.wlan[0].mac.dcf.channelAccess.contention backoffPeriodGenerated:vector ETV
attr interpolationmode none
attr recordingmode vector
attr title "backoff periods"
vector 106 WiredAndWirelessHostsWithAP.wirelessHost2.wlan[0].mac.dcf.channelAccess.contention backoffActive:vector ETV
attr autoWarmupFilter false
attr interpolationmode sample-hold
attr recordingmode vector
attr source warmup(count(backoffStarted)-count(backoffStopped))
attr title "backoff active"
vector 107 WiredAndWirelessHostsWithAP.wirelessHost2.wlan[0].mac.dcf.channelAccess.contention stateChanged:vector ETV
attr enum IDLE,DEFER,IFS_AND_BACKOFF
attr interpolationmode none
attr recordingmode vector
attr title "contention state changed"
attr type enum
vector 108 WiredAndWirelessHostsWithAP.wirelessHost2.wlan[0].mac.dcf.recipientMacDataService packetDropDuplicateDetected:vector(packetBytes) ETV
attr interpolationmode none
attr recordingmode vector(packetBytes)
attr source packetDropReasonIsDuplicateDetected(packetDropped)
attr title "packet drops: duplicate detected, packetBytes"
vector 109 WiredAndWirelessHostsWithAP.wirelessHost2.wlan[0].mac.dcf.recoveryProcedure contentionWindowChanged:vector ETV
attr interpolationmode sample-hold
attr recordingmode vector
attr title "contention window"
vector 110 WiredAndWirelessHostsWithAP.wirelessHost2.wlan[0].mac.dcf packetSentToPeer:vector(packetBytes) ETV
attr interpolationmode none
attr recordingmode vector(packetBytes)
attr title "packets sent, packetBytes"
vector 111 WiredAndWirelessHostsWithAP.wirelessHost2.wlan[0].mac.dcf packetSentToPeerUnicast:vector(packetBytes) ETV
attr interpolationmode none
attr recordingmode vector(packetBytes)
attr source ieee80211Unicast(packetSentToPeer)
attr title "packets sent: unicast, packetBytes"
vector 112 WiredAndWirelessHostsWithAP.wirelessHost2.wlan[0].mac.dcf packetSentToPeerMulticast:vector(packetBytes) ETV
attr interpolationmode none
attr recordingmode vector(packetBytes)
attr source ieee80211Multicast(packetSentToPeer)
attr title "packets sent: multicast, packetBytes"
vector 113 WiredAndWirelessHostsWithAP.wirelessHost2.wlan[0].mac.dcf packetSentToPeerBroadcast:vector(packetBytes) ETV
attr interpolationmode none
attr recordingmode vector(packetBytes)
attr source ieee80211Broadcast(packetSentToPeer)
attr title "packets sent: broadcast , packetBytes"
vector 114 WiredAndWirelessHostsWithAP.wirelessHost2.wlan[0].mac.dcf packetSentToPeerWithRetry:vector(packetBytes) ETV
attr interpolationmode none
attr recordingmode vector(packetBytes)
attr source ieee80211Retry(packetSentToPeer)
attr title "packets sent: with retry, packetBytes"
vector 115 WiredAndWirelessHostsWithAP.wirelessHost2.wlan[0].mac.dcf packetSentToPeerWithoutRetry:vector(packetBytes) ETV
attr interpolationmode none
attr recordingmode vector(packetBytes)
attr source ieee80211NotRetry(packetSentToPeer)
attr title "packets sent: without retry, packetBytes"
vector 116 WiredAndWirelessHostsWithAP.wirelessHost2.wlan[0].mac.dcf packetReceivedFromPeer:vector(packetBytes) ETV
attr interpolationmode none
attr recordingmode vector(packetBytes)
attr title "packets received, packetBytes"
vector 117 WiredAndWirelessHostsWithAP.wirelessHost2.wlan[0].mac.dcf packetReceivedFromPeerUnicast:vector(packetBytes) ETV
attr interpolationmode none
attr recordingmode vector(packetBytes)
attr source ieee80211Unicast(packetReceivedFromPeer)
attr title "packets received: unicast, packetBytes"
vector 118 WiredAndWirelessHostsWithAP.wirelessHost2.wlan[0].mac.dcf packetReceivedFromPeerMulticast:vector(packetBytes) ETV
attr interpolationmode none
attr recordingmode vector(packetBytes)
attr source ieee80211Multicast(packetReceivedFromPeer)
attr title "packets received: multicast, packetBytes"
vector 119 WiredAndWirelessHostsWithAP.wirelessHost2.wlan[0].mac.dcf packetReceivedFromPeerBroadcast:vector(packetBytes) ETV
attr interpolationmode none
attr recordingmode vector(packetBytes)
attr source ieee80211Broadcast(packetReceivedFromPeer)
attr title "packets received: broadcast, packetBytes"
vector 120 WiredAndWirelessHostsWithAP.wirelessHost2.wlan[0].mac.dcf packetReceivedFromPeerWithRetry:vector(packetBytes) ETV
attr interpolationmode none
attr recordingmode vector(packetBytes)
attr source ieee80211Retry(packetReceivedFromPeer)
attr title "packets received: with retry, packetBytes"
vector 121 WiredAndWirelessHostsWithAP.wirelessHost2.wlan[0].mac.dcf packetReceivedFromPeerWithoutRetry:vector(packetBytes) ETV
attr interpolationmode none
attr recordingmode vector(packetBytes)
attr source ieee80211NotRetry(packetReceivedFromPeer)
attr title "packets received: without retry, packetBytes"
vector 122 WiredAndWirelessHostsWithAP.wirelessHost2.wlan[0].mac.dcf packetDrop:vector(packetBytes) ETV
attr interpolationmode none
attr recordingmode vector(packetBytes)
attr source packetDropped
attr title "packet drops, packetBytes"
vector 123 WiredAndWirelessHostsWithAP.wirelessHost2.wlan[0].mac.dcf packetDropNotAddressedToUs:vector(packetBytes) ETV
attr interpolationmode none
attr recordingmode vector(packetBytes)
attr source packetDropReasonIsNotAddressedToUs(packetDropped)
attr title "packet drops: not addressed to us, packetBytes"
vector 124 WiredAndWirelessHostsWithAP.wirelessHost2.wlan[0].mac.dcf packetDropQueueOverflow:vector(packetBytes) ETV
attr interpolationmode none
attr recordingmode vector(packetBytes)
attr source packetDropReasonIsQueueOverflow(packetDropped)
attr title "packet drops: queue overflow, packetBytes"
vector 125 WiredAndWirelessHostsWithAP.wirelessHost2.wlan[0].mac.dcf packetDropRetryLimitReached:vector(packetBytes) ETV
attr interpolationmode none
attr recordingmode vector(packetBytes)
attr source packetDropReasonIsRetryLimitReached(packetDropped)
attr title "packet drops: retry limit reached, packetBytes"
vector 126 WiredAndWirelessHostsWithAP.wirelessHost2.wlan[0].mac.dcf frameSequenceActive:vector ETV
attr autoWarmupFilter false
attr interpolationmode sample-hold
attr recordingmode vector
attr source warmup(count(frameSequenceStarted)-count(frameSequenceFinished))
attr title "frame sequence active"
vector 127 WiredAndWirelessHostsWithAP.wirelessHost2.wlan[0].mac.dcf datarateSelected:vector ETV
attr interpolationmode none
attr recordingmode vector
attr title "datarates selected"
vector 128 WiredAndWirelessHostsWithAP.wirelessHost2.wlan[0].mac.rx nav:vector ETV
attr interpolationmode linear
attr recordingmode vector
attr source navChanged
attr title "network allocation vector"
vector 129 WiredAndWirelessHostsWithAP.wirelessHost2.wlan[0].mac packetSentToUpper:vector(packetBytes) ETV
attr interpolationmode none
attr recordingmode vector(packetBytes)
attr title "packets sent to upper layer, packetBytes"
vector 130 WiredAndWirelessHostsWithAP.wirelessHost2.wlan[0].mac packetSentToLower:vector(packetBytes) ETV
attr interpolationmode none
attr recordingmode vector(packetBytes)
attr title "packets sent to lower layer, packetBytes"
vector 131 WiredAndWirelessHostsWithAP.wirelessHost2.wlan[0].mac packetReceivedFromUpper:vector(packetBytes) ETV
attr interpolationmode none
attr recordingmode vector(packetBytes)
attr title "packets received from upper layer, packetBytes"
vector 132 WiredAndWirelessHostsWithAP.wirelessHost2.wlan[0].mac packetReceivedFromLower:vector(packetBytes) ETV
attr interpolationmode none
attr recordingmode vector(packetBytes)
attr title "packets received from lower layer, packetBytes"
vector 133 WiredAndWirelessHostsWithAP.wirelessHost2.wlan[0].mac packetDrop:vector(packetBytes) ETV
attr interpolationmode none
attr recordingmode vector(packetBytes)
attr source packetDropped
attr title "packet drops, packetBytes"
vector 134 WiredAndWirelessHostsWithAP.wirelessHost2.wlan[0].mac packetDropIncorrectlyReceived:vector(packetBytes) ETV
attr interpolationmode none
attr recordingmode vector(packetBytes)
attr source packetDropReasonIsIncorrectlyReceived(packetDropped)
attr title "packet drops: incorrectly received, packetBytes"
vector 135 WiredAndWirelessHostsWithAP.wirelessHost2.wlan[0].mac packetDropNotAddressedToUs:vector(packetBytes) ETV
attr interpolationmode none
attr recordingmode vector(packetBytes)
attr source packetDropReasonIsNotAddressedToUs(packetDropped)
attr title "packet drops: not addressed to us, packetBytes"
vector 136 WiredAndWirelessHostsWithAP.wirelessHost2.wlan[0].mac packetDropQueueOverflow:vector(packetBytes) ETV
attr interpolationmode none
attr recordingmode vector(packetBytes)
attr source packetDropReasonIsQueueOverflow(packetDropped)
attr title "packet drops: queue overflow, packetBytes"
vector 137 WiredAndWirelessHostsWithAP.wirelessHost2.wlan[0].mac packetDropRetryLimitReached:vector(packetBytes) ETV
attr interpolationmode none
attr recordingmode vector(packetBytes)
attr source packetDropReasonIsRetryLimitReached(packetDropped)
attr title "packet drops: retry limit reached, packetBytes"
vector 138 WiredAndWirelessHostsWithAP.wirelessHost2.wlan[0].mac packetDropDuplicateDetected:vector(packetBytes) ETV
attr interpolationmode none
attr recordingmode vector(packetBytes)
attr source packetDropReasonIsDuplicateDetected(packetDropped)
attr title "packet drops: duplicate detected, packetBytes"
vector 139 WiredAndWirelessHostsWithAP.wirelessHost2.wlan[0].mac packetDropOther:vector(packetBytes) ETV
attr interpolationmode none
attr recordingmode vector(packetBytes)
attr source packetDropReasonIsOther(packetDropped)
attr title "packet drops: other, packetBytes"
vector 140 WiredAndWirelessHostsWithAP.wirelessHost2.wlan[0].radio radioMode:vector ETV
attr interpolationmode sample-hold
attr recordingmode vector
attr source radioModeChanged
attr title "Radio mode"
vector 141 WiredAndWirelessHostsWithAP.wirelessHost2.wlan[0].radio receptionState:vector ETV
attr interpolationmode sample-hold
attr recordingmode vector
attr source receptionStateChanged
attr title "Radio reception state"
vector 142 WiredAndWirelessHostsWithAP.wirelessHost2.wlan[0].radio transmissionState:vector ETV
attr interpolationmode sample-hold
attr recordingmode vector
attr source transmissionStateChanged
attr title "Radio transmission state"
vector 143 WiredAndWirelessHostsWithAP.wirelessHost2.wlan[0].radio radioChannel:vector ETV
attr interpolationmode sample-hold
attr recordingmode vector
attr source radioChannelChanged
attr title "Radio channel"
vector 144 WiredAndWirelessHostsWithAP.wirelessHost2.wlan[0] packetDropInterfaceDown:vector(packetBytes) ETV
attr interpolationmode none
attr recordingmode vector(packetBytes)
attr source packetDropReasonIsInterfaceDown(packetDropped)
attr title "packet drops: interface down, packetBytes"
vector 145 WiredAndWirelessHostsWithAP.wirelessHost2.wlan[0] packetDropNoCarrier:vector(packetBytes) ETV
attr interpolationmode none
attr recordingmode vector(packetBytes)
attr source packetDropReasonIsNoCarrier(packetDropped)
attr title "packet drops: no carrier, packetBytes"
vector 146 WiredAndWirelessHostsWithAP.wirelessHost2.ipv4.ip packetDropAddressResolutionFailed:vector(packetBytes) ETV
attr interpolationmode none
attr recordingmode vector(packetBytes)
attr source packetDropReasonIsAddressResolutionFailed(packetDropped)
attr title "packet drop: address resolution failed, packetBytes"
vector 147 WiredAndWirelessHostsWithAP.wirelessHost2.ipv4.ip packetDropHopLimitReached:vector(packetBytes) ETV
attr interpolationmode none
attr recordingmode vector(packetBytes)
attr source packetDropReasonIsHopLimitReached(packetDropped)
attr title "packet drop: hop limit reached, packetBytes"
vector 148 WiredAndWirelessHostsWithAP.wirelessHost2.ipv4.ip packetDropForwardingDisabled:vector(packetBytes) ETV
attr interpolationmode none
attr recordingmode vector(packetBytes)
attr source packetDropReasonIsForwardingDisabled(packetDropped)
attr title "packet drop: forwarding disabled, packetBytes"
vector 149 WiredAndWirelessHostsWithAP.wirelessHost2.ipv4.ip packetDropNoInterfaceFound:vector(packetBytes) ETV
attr interpolationmode none
attr recordingmode vector(packetBytes)
attr source packetDropReasonIsNoInterfaceFound(packetDropped)
attr title "packet drop: no interface found, packetBytes"
vector 150 WiredAndWirelessHostsWithAP.wirelessHost2.ipv4.ip packetDropNoRouteFound:vector(packetBytes) ETV
attr interpolationmode none
attr recordingmode vector(packetBytes)
attr source packetDropReasonIsNoRouteFound(packetDropped)
attr title "packet drop: no route found, packetBytes"
vector 151 WiredAndWirelessHostsWithAP.wirelessHost2.ipv4.ip packetDropUndefined:vector(packetBytes) ETV
attr interpolationmode none
attr recordingmode vector(packetBytes)
attr source packetDropReasonIsUndefined(packetDropped)
attr title "packet drop: undefined, packetBytes"
vector 152 WiredAndWirelessHostsWithAP.wirelessHost2.ipv4.arp arpRequestSent:vector(packetBytes) ETV
attr recordingmode vector(packetBytes)
attr source arpRequestSent
attr title "ARP request sent, packetBytes"
vector 153 WiredAndWirelessHostsWithAP.wirelessHost2.ipv4.arp arpReplySent:vector(packetBytes) ETV
attr recordingmode vector(packetBytes)
attr source arpReplySent
attr title "ARP replies sent, packetBytes"
vector 154 WiredAndWirelessHostsWithAP.wirelessHost2.udp packetSent:vector(packetBytes) ETV
attr interpolationmode none
attr recordingmode vector(packetBytes)
attr source packetSent
attr title "packets sent, packetBytes"
vector 155 WiredAndWirelessHostsWithAP.wirelessHost2.udp packetReceived:vector(packetBytes) ETV
attr interpolationmode none
attr recordingmode vector(packetBytes)
attr source packetReceived
attr title "packets received, packetBytes"
vector 156 WiredAndWirelessHostsWithAP.wirelessHost2.udp passedUpPk:vector(count) ETV
attr interpolationmode none
attr recordingmode vector(count)
attr source packetSentToUpper
attr title "packets passed up, count"
vector 157 WiredAndWirelessHostsWithAP.wirelessHost2.udp droppedPkWrongPort:vector(count) ETV
attr interpolationmode none
attr recordingmode vector(count)
attr source packetDropReasonIsNoPortFound(packetDropped)
attr title "packets dropped (wrong port), count"
vector 158 WiredAndWirelessHostsWithAP.wirelessHost2.udp droppedPkBadChecksum:vector(count) ETV
attr interpolationmode none
attr recordingmode vector(count)
attr source packetDropReasonIsIncorrectlyReceived(packetDropped)
attr title "packets dropped (checksum error), count"
vector 159 WiredAndWirelessHostsWithAP.wirelessHost2.app[0] echoedPk:vector(packetBytes) ETV
attr interpolationmode none
attr recordingmode vector(packetBytes)
attr source packetSent
attr title "packets echoed, packetBytes"
vector 160 WiredAndWirelessHostsWithAP.wirelessHost2.app[1] rtt:vector ETV
attr interpolationmode none
attr recordingmode vector
attr title "ping round-trip time"
attr unit s
vector 161 WiredAndWirelessHostsWithAP.wirelessHost2.app[1] numLost:vector ETV
attr interpolationmode none
attr recordingmode vector
attr title "pings lost"
vector 162 WiredAndWirelessHostsWithAP.wirelessHost2.app[1] numOutOfOrderArrivals:vector ETV
attr interpolationmode none
attr recordingmode vector
attr title "ping out-of-order arrivals"
vector 163 WiredAndWirelessHostsWithAP.wirelessHost2.app[1] pingTxSeq:vector ETV
attr interpolationmode none
attr recordingmode vector
attr title "ping tx seq"
vector 164 WiredAndWirelessHostsWithAP.wirelessHost2.app[1] pingRxSeq:vector ETV
attr interpolationmode none
attr recordingmode vector
attr title "ping rx seq"
vector 165 WiredAndWirelessHostsWithAP.wirelessHost2.app[2] rtt:vector ETV
attr interpolationmode none
attr recordingmode vector
attr title "ping round-trip time"
attr unit s
vector 166 WiredAndWirelessHostsWithAP.wirelessHost2.app[2] numLost:vector ETV
attr interpolationmode none
attr recordingmode vector
attr title "pings lost"
vector 167 WiredAndWirelessHostsWithAP.wirelessHost2.app[2] numOutOfOrderArrivals:vector ETV
attr interpolationmode none
attr recordingmode vector
attr title "ping out-of-order arrivals"
vector 168 WiredAndWirelessHostsWithAP.wirelessHost2.app[2] pingTxSeq:vector ETV
attr interpolationmode none
attr recordingmode vector
attr title "ping tx seq"
vector 169 WiredAndWirelessHostsWithAP.wirelessHost2.app[2] pingRxSeq:vector ETV
attr interpolationmode none
attr recordingmode vector
attr title "ping rx seq"
vector 170 WiredAndWirelessHostsWithAP.wirelessHost3.lo[0].lo rcvdPkFromHl:vector(packetBytes) ETV
attr interpolationmode none
attr recordingmode vector(packetBytes)
attr source packetReceivedFromUpper
attr title "packets received from higher layer, packetBytes"
vector 171 WiredAndWirelessHostsWithAP.wirelessHost3.lo[0].lo passedUpPk:vector(packetBytes) ETV
attr interpolationmode none
attr recordingmode vector(packetBytes)
attr source packetSentToUpper
attr title "packets passed to higher layer, packetBytes"
vector 172 WiredAndWirelessHostsWithAP.wirelessHost3.lo[0] packetDropInterfaceDown:vector(packetBytes) ETV
attr interpolationmode none
attr recordingmode vector(packetBytes)
attr source packetDropReasonIsInterfaceDown(packetDropped)
attr title "packet drops: interface down, packetBytes"
vector 173 WiredAndWirelessHostsWithAP.wirelessHost3.lo[0] packetDropNoCarrier:vector(packetBytes) ETV
attr interpolationmode none
attr recordingmode vector(packetBytes)
attr source packetDropReasonIsNoCarrier(packetDropped)
attr title "packet drops: no carrier, packetBytes"
vector 174 WiredAndWirelessHostsWithAP.wirelessHost3.wlan[0].agent sentRequest:vector ETV
attr recordingmode vector
attr title "sent requests"
vector 175 WiredAndWirelessHostsWithAP.wirelessHost3.wlan[0].agent acceptConfirm:vector ETV
attr recordingmode vector
attr title "accepted confirms"
vector 176 WiredAndWirelessHostsWithAP.wirelessHost3.wlan[0].agent dropConfirm:vector ETV
attr recordingmode vector
attr title "dropped confirms"
vector 177 WiredAndWirelessHostsWithAP.wirelessHost3.wlan[0].mac.dcf.channelAccess.pendingQueue queueLength:vector ETV
attr autoWarmupFilter false
attr interpolationmode sample-hold
attr recordingmode vector
attr source "warmup(atomic(constant0(packetPushEnded) + count(packetPushStarted) - count(packetPulled) - count(packetRemoved) - count(packetDropped)))"
attr title "queue length"
attr unit pk
vector 178 WiredAndWirelessHostsWithAP.wirelessHost3.wlan[0].mac.dcf.channelAccess.pendingQueue queueBitLength:vector ETV
attr autoWarmupFilter false
attr interpolationmode sample-hold
attr recordingmode vector
attr source "warmup(atomic(constant0(packetPushEnded) + sum(packetLength(packetPushStarted)) - sum(packetLength(packetPulled)) - sum(packetLength(packetRemoved)) - sum(packetLength(packetDropped))))"
attr title "queue bit length"
attr unit b
vector 179 WiredAndWirelessHostsWithAP.wirelessHost3.wlan[0].mac.dcf.channelAccess.pendingQueue queueingTime:vector ETV
attr interpolationmode none
attr recordingmode vector
attr source queueingTime(packetPulled)
attr title "queueing times"
attr unit s
vector 180 WiredAndWirelessHostsWithAP.wirelessHost3.wlan[0].mac.dcf.channelAccess.pendingQueue incomingPacketLengths:vector ETV
attr interpolationmode none
attr recordingmode vector
attr source packetLength(packetPushStarted)
attr title "incoming packet lengths"
attr unit b
vector 181 WiredAndWirelessHostsWithAP.wirelessHost3.wlan[0].mac.dcf.channelAccess.pendingQueue incomingDataRate:vector ETV
attr interpolationmode linear
attr recordingmode vector
attr source throughput(packetPushStarted)
attr title "incoming datarate"
attr unit bps
vector 182 WiredAndWirelessHostsWithAP.wirelessHost3.wlan[0].mac.dcf.channelAccess.pendingQueue outgoingPacketLengths:vector ETV
attr interpolationmode none
attr recordingmode vector
attr source packetLength(packetPulled)
attr title "outgoing packet lengths"
attr unit b
vector 183 WiredAndWirelessHostsWithAP.wirelessHost3.wlan[0].mac.dcf.channelAccess.pendingQueue outgoingDataRate:vector ETV
attr interpolationmode linear
attr recordingmode vector
attr source throughput(packetPulled)
attr title "outgoing datarate"
attr unit bps
vector 184 WiredAndWirelessHostsWithAP.wirelessHost3.wlan[0].mac.dcf.channelAccess.pendingQueue droppedPacketLengthsQueueOverflow:vector ETV
attr interpolationmode none
attr recordingmode vector
attr source packetLength(packetDropReasonIsQueueOverflow(packetDropped))
attr title "dropped packet lengths: queue overflow"
attr unit b
vector 185 WiredAndWirelessHostsWithAP.wirelessHost3.wlan[0].mac.dcf.channelAccess.pendingQueue flowQueueingTime:vector ETV
attr interpolationmode none
attr recordingmode vector
attr source queueingTime(demuxFlow(packetPulled))
attr title "flow queueing times"
attr unit s
vector 186 WiredAndWirelessHostsWithAP.wirelessHost3.wlan[0].mac.dcf.channelAccess.pendingQueue flowIncomingDataRate:vector ETV
attr interpolationmode linear
attr recordingmode vector
attr source throughput(flowPacketLength(demuxFlow(packetPushStarted)))
attr title "flow specific incoming data rate"
attr unit bps
vector 187 WiredAndWirelessHostsWithAP.wirelessHost3.wlan[0].mac.dcf.channelAccess.pendingQueue flowOutgoingDataRate:vector ETV
attr interpolationmode linear
attr recordingmode vector
attr source throughput(flowPacketLength(demuxFlow(packetPulled)))
attr title "flow specific outgoing data rate"
attr unit bps
vector 188 WiredAndWirelessHostsWithAP.wirelessHost3.wlan[0].mac.dcf.channelAccess.inProgressFrames queueingTime:vector ETV
attr interpolationmode none
attr recordingmode vector
attr source queueingTime(packetDequeued)
attr title "queueing times"
vector 189 WiredAndWirelessHostsWithAP.wirelessHost3.wlan[0].mac.dcf.channelAccess.inProgressFrames queueLength:vector ETV
attr autoWarmupFilter false
attr interpolationmode sample-hold
attr recordingmode vector
attr source "warmup(count(packetEnqueued) - count(packetDequeued))"
attr title "queue length"
vector 190 WiredAndWirelessHostsWithAP.wirelessHost3.wlan[0].mac.dcf.channelAccess.contention backoffPeriodGenerated:vector ETV
attr interpolationmode none
attr recordingmode vector
attr title "backoff periods"
vector 191 WiredAndWirelessHostsWithAP.wirelessHost3.wlan[0].mac.dcf.channelAccess.contention backoffActive:vector ETV
attr autoWarmupFilter false
attr interpolationmode sample-hold
attr recordingmode vector
attr source warmup(count(backoffStarted)-count(backoffStopped))
attr title "backoff active"
vector 192 WiredAndWirelessHostsWithAP.wirelessHost3.wlan[0].mac.dcf.channelAccess.contention stateChanged:vector ETV
attr enum IDLE,DEFER,IFS_AND_BACKOFF
attr interpolationmode none
attr recordingmode vector
attr title "contention state changed"
attr type enum
vector 193 WiredAndWirelessHostsWithAP.wirelessHost3.wlan[0].mac.dcf.recipientMacDataService packetDropDuplicateDetected:vector(packetBytes) ETV
attr interpolationmode none
attr recordingmode vector(packetBytes)
attr source packetDropReasonIsDuplicateDetected(packetDropped)
attr title "packet drops: duplicate detected, packetBytes"
vector 194 WiredAndWirelessHostsWithAP.wirelessHost3.wlan[0].mac.dcf.recoveryProcedure contentionWindowChanged:vector ETV
attr interpolationmode sample-hold
attr recordingmode vector
attr title "contention window"
vector 195 WiredAndWirelessHostsWithAP.wirelessHost3.wlan[0].mac.dcf packetSentToPeer:vector(packetBytes) ETV
attr interpolationmode none
attr recordingmode vector(packetBytes)
attr title "packets sent, packetBytes"
vector 196 WiredAndWirelessHostsWithAP.wirelessHost3.wlan[0].mac.dcf packetSentToPeerUnicast:vector(packetBytes) ETV
attr interpolationmode none
attr recordingmode vector(packetBytes)
attr source ieee80211Unicast(packetSentToPeer)
attr title "packets sent: unicast, packetBytes"
vector 197 WiredAndWirelessHostsWithAP.wirelessHost3.wlan[0].mac.dcf packetSentToPeerMulticast:vector(packetBytes) ETV
attr interpolationmode none
attr recordingmode vector(packetBytes)
attr source ieee80211Multicast(packetSentToPeer)
attr title "packets sent: multicast, packetBytes"
vector 198 WiredAndWirelessHostsWithAP.wirelessHost3.wlan[0].mac.dcf packetSentToPeerBroadcast:vector(packetBytes) ETV
attr interpolationmode none
attr recordingmode vector(packetBytes)
attr source ieee80211Broadcast(packetSentToPeer)
attr title "packets sent: broadcast , packetBytes"
vector 199 WiredAndWirelessHostsWithAP.wirelessHost3.wlan[0].mac.dcf packetSentToPeerWithRetry:vector(packetBytes) ETV
attr interpolationmode none
attr recordingmode vector(packetBytes)
attr source ieee80211Retry(packetSentToPeer)
attr title "packets sent: with retry, packetBytes"
vector 200 WiredAndWirelessHostsWithAP.wirelessHost3.wlan[0].mac.dcf packetSentToPeerWithoutRetry:vector(packetBytes) ETV
attr interpolationmode none
attr recordingmode vector(packetBytes)
attr source ieee80211NotRetry(packetSentToPeer)
attr title "packets sent: without retry, packetBytes"
vector 201 WiredAndWirelessHostsWithAP.wirelessHost3.wlan[0].mac.dcf packetReceivedFromPeer:vector(packetBytes) ETV
attr interpolationmode none
attr recordingmode vector(packetBytes)
attr title "packets received, packetBytes"
vector 202 WiredAndWirelessHostsWithAP.wirelessHost3.wlan[0].mac.dcf packetReceivedFromPeerUnicast:vector(packetBytes) ETV
attr interpolationmode none
attr recordingmode vector(packetBytes)
attr source ieee80211Unicast(packetReceivedFromPeer)
attr title "packets received: unicast, packetBytes"
vector 203 WiredAndWirelessHostsWithAP.wirelessHost3.wlan[0].mac.dcf packetReceivedFromPeerMulticast:vector(packetBytes) ETV
attr interpolationmode none
attr recordingmode vector(packetBytes)
attr source ieee80211Multicast(packetReceivedFromPeer)
attr title "packets received: multicast, packetBytes"
vector 204 WiredAndWirelessHostsWithAP.wirelessHost3.wlan[0].mac.dcf packetReceivedFromPeerBroadcast:vector(packetBytes) ETV
attr interpolationmode none
attr recordingmode vector(packetBytes)
attr source ieee80211Broadcast(packetReceivedFromPeer)
attr title "packets received: broadcast, packetBytes"
vector 205 WiredAndWirelessHostsWithAP.wirelessHost3.wlan[0].mac.dcf packetReceivedFromPeerWithRetry:vector(packetBytes) ETV
attr interpolationmode none
attr recordingmode vector(packetBytes)
attr source ieee80211Retry(packetReceivedFromPeer)
attr title "packets received: with retry, packetBytes"
vector 206 WiredAndWirelessHostsWithAP.wirelessHost3.wlan[0].mac.dcf packetReceivedFromPeerWithoutRetry:vector(packetBytes) ETV
attr interpolationmode none
attr recordingmode vector(packetBytes)
attr source ieee80211NotRetry(packetReceivedFromPeer)
attr title "packets received: without retry, packetBytes"
vector 207 WiredAndWirelessHostsWithAP.wirelessHost3.wlan[0].mac.dcf packetDrop:vector(packetBytes) ETV
attr interpolationmode none
attr recordingmode vector(packetBytes)
attr source packetDropped
attr title "packet drops, packetBytes"
vector 208 WiredAndWirelessHostsWithAP.wirelessHost3.wlan[0].mac.dcf packetDropNotAddressedToUs:vector(packetBytes) ETV
attr interpolationmode none
attr recordingmode vector(packetBytes)
attr source packetDropReasonIsNotAddressedToUs(packetDropped)
attr title "packet drops: not addressed to us, packetBytes"
vector 209 WiredAndWirelessHostsWithAP.wirelessHost3.wlan[0].mac.dcf packetDropQueueOverflow:vector(packetBytes) ETV
attr interpolationmode none
attr recordingmode vector(packetBytes)
attr source packetDropReasonIsQueueOverflow(packetDropped)
attr title "packet drops: queue overflow, packetBytes"
vector 210 WiredAndWirelessHostsWithAP.wirelessHost3.wlan[0].mac.dcf packetDropRetryLimitReached:vector(packetBytes) ETV
attr interpolationmode none
attr recordingmode vector(packetBytes)
attr source packetDropReasonIsRetryLimitReached(packetDropped)
attr title "packet drops: retry limit reached, packetBytes"
vector 211 WiredAndWirelessHostsWithAP.wirelessHost3.wlan[0].mac.dcf frameSequenceActive:vector ETV
attr autoWarmupFilter false
attr interpolationmode sample-hold
attr recordingmode vector
attr source warmup(count(frameSequenceStarted)-count(frameSequenceFinished))
attr title "frame sequence active"
vector 212 WiredAndWirelessHostsWithAP.wirelessHost3.wlan[0].mac.dcf datarateSelected:vector ETV
attr interpolationmode none
attr recordingmode vector
attr title "datarates selected"
vector 213 WiredAndWirelessHostsWithAP.wirelessHost3.wlan[0].mac.rx nav:vector ETV
attr interpolationmode linear
attr recordingmode vector
attr source navChanged
attr title "network allocation vector"
vector 214 WiredAndWirelessHostsWithAP.wirelessHost3.wlan[0].mac packetSentToUpper:vector(packetBytes) ETV
attr interpolationmode none
attr recordingmode vector(packetBytes)
attr title "packets sent to upper layer, packetBytes"
vector 215 WiredAndWirelessHostsWithAP.wirelessHost3.wlan[0].mac packetSentToLower:vector(packetBytes) ETV
attr interpolationmode none
attr recordingmode vector(packetBytes)
attr title "packets sent to lower layer, packetBytes"
vector 216 WiredAndWirelessHostsWithAP.wirelessHost3.wlan[0].mac packetReceivedFromUpper:vector(packetBytes) ETV
attr interpolationmode none
attr recordingmode vector(packetBytes)
attr title "packets received from upper layer, packetBytes"
vector 217 WiredAndWirelessHostsWithAP.wirelessHost3.wlan[0].mac packetReceivedFromLower:vector(packetBytes) ETV
attr interpolationmode none
attr recordingmode vector(packetBytes)
attr title "packets received from lower layer, packetBytes"
vector 218 WiredAndWirelessHostsWithAP.wirelessHost3.wlan[0].mac packetDrop:vector(packetBytes) ETV
attr interpolationmode none
attr recordingmode vector(packetBytes)
attr source packetDropped
attr title "packet drops, packetBytes"
vector 219 WiredAndWirelessHostsWithAP.wirelessHost3.wlan[0].mac packetDropIncorrectlyReceived:vector(packetBytes) ETV
attr interpolationmode none
attr recordingmode vector(packetBytes)
attr source packetDropReasonIsIncorrectlyReceived(packetDropped)
attr title "packet drops: incorrectly received, packetBytes"
vector 220 WiredAndWirelessHostsWithAP.wirelessHost3.wlan[0].mac packetDropNotAddressedToUs:vector(packetBytes) ETV
attr interpolationmode none
attr recordingmode vector(packetBytes)
attr source packetDropReasonIsNotAddressedToUs(packetDropped)
attr title "packet drops: not addressed to us, packetBytes"
vector 221 WiredAndWirelessHostsWithAP.wirelessHost3.wlan[0].mac packetDropQueueOverflow:vector(packetBytes) ETV
attr interpolationmode none
attr recordingmode vector(packetBytes)
attr source packetDropReasonIsQueueOverflow(packetDropped)
attr title "packet drops: queue overflow, packetBytes"
vector 222 WiredAndWirelessHostsWithAP.wirelessHost3.wlan[0].mac packetDropRetryLimitReached:vector(packetBytes) ETV
attr interpolationmode none
attr recordingmode vector(packetBytes)
attr source packetDropReasonIsRetryLimitReached(packetDropped)
attr title "packet drops: retry limit reached, packetBytes"
vector 223 WiredAndWirelessHostsWithAP.wirelessHost3.wlan[0].mac packetDropDuplicateDetected:vector(packetBytes) ETV
attr interpolationmode none
attr recordingmode vector(packetBytes)
attr source packetDropReasonIsDuplicateDetected(packetDropped)
attr title "packet drops: duplicate detected, packetBytes"
vector 224 WiredAndWirelessHostsWithAP.wirelessHost3.wlan[0].mac packetDropOther:vector(packetBytes) ETV
attr interpolationmode none
attr recordingmode vector(packetBytes)
attr source packetDropReasonIsOther(packetDropped)
attr title "packet drops: other, packetBytes"
vector 225 WiredAndWirelessHostsWithAP.wirelessHost3.wlan[0].radio radioMode:vector ETV
attr interpolationmode sample-hold
attr recordingmode vector
attr source radioModeChanged
attr title "Radio mode"
vector 226 WiredAndWirelessHostsWithAP.wirelessHost3.wlan[0].radio receptionState:vector ETV
attr interpolationmode sample-hold
attr recordingmode vector
attr source receptionStateChanged
attr title "Radio reception state"
vector 227 WiredAndWirelessHostsWithAP.wirelessHost3.wlan[0].radio transmissionState:vector ETV
attr interpolationmode sample-hold
attr recordingmode vector
attr source transmissionStateChanged
attr title "Radio transmission state"
vector 228 WiredAndWirelessHostsWithAP.wirelessHost3.wlan[0].radio radioChannel:vector ETV
attr interpolationmode sample-hold
attr recordingmode vector
attr source radioChannelChanged
attr title "Radio channel"
vector 229 WiredAndWirelessHostsWithAP.wirelessHost3.wlan[0] packetDropInterfaceDown:vector(packetBytes) ETV
attr interpolationmode none
attr recordingmode vector(packetBytes)
attr source packetDropReasonIsInterfaceDown(packetDropped)
attr title "packet drops: interface down, packetBytes"
vector 230 WiredAndWirelessHostsWithAP.wirelessHost3.wlan[0] packetDropNoCarrier:vector(packetBytes) ETV
attr interpolationmode none
attr recordingmode vector(packetBytes)
attr source packetDropReasonIsNoCarrier(packetDropped)
attr title "packet drops: no carrier, packetBytes"
vector 231 WiredAndWirelessHostsWithAP.wirelessHost3.ipv4.ip packetDropAddressResolutionFailed:vector(packetBytes) ETV
attr interpolationmode none
attr recordingmode vector(packetBytes)
attr source packetDropReasonIsAddressResolutionFailed(packetDropped)
attr title "packet drop: address resolution failed, packetBytes"
vector 232 WiredAndWirelessHostsWithAP.wirelessHost3.ipv4.ip packetDropHopLimitReached:vector(packetBytes) ETV
attr interpolationmode none
attr recordingmode vector(packetBytes)
attr source packetDropReasonIsHopLimitReached(packetDropped)
attr title "packet drop: hop limit reached, packetBytes"
vector 233 WiredAndWirelessHostsWithAP.wirelessHost3.ipv4.ip packetDropForwardingDisabled:vector(packetBytes) ETV
attr interpolationmode none
attr recordingmode vector(packetBytes)
attr source packetDropReasonIsForwardingDisabled(packetDropped)
attr title "packet drop: forwarding disabled, packetBytes"
vector 234 WiredAndWirelessHostsWithAP.wirelessHost3.ipv4.ip packetDropNoInterfaceFound:vector(packetBytes) ETV
attr interpolationmode none
attr recordingmode vector(packetBytes)
attr source packetDropReasonIsNoInterfaceFound(packetDropped)
attr title "packet drop: no interface found, packetBytes"
vector 235 WiredAndWirelessHostsWithAP.wirelessHost3.ipv4.ip packetDropNoRouteFound:vector(packetBytes) ETV
attr interpolationmode none
attr recordingmode vector(packetBytes)
attr source packetDropReasonIsNoRouteFound(packetDropped)
attr title "packet drop: no route found, packetBytes"
vector 236 WiredAndWirelessHostsWithAP.wirelessHost3.ipv4.ip packetDropUndefined:vector(packetBytes) ETV
attr interpolationmode none
attr recordingmode vector(packetBytes)
attr source packetDropReasonIsUndefined(packetDropped)
attr title "packet drop: undefined, packetBytes"
vector 237 WiredAndWirelessHostsWithAP.wirelessHost3.ipv4.arp arpRequestSent:vector(packetBytes) ETV
attr recordingmode vector(packetBytes)
attr source arpRequestSent
attr title "ARP request sent, packetBytes"
vector 238 WiredAndWirelessHostsWithAP.wirelessHost3.ipv4.arp arpReplySent:vector(packetBytes) ETV
attr recordingmode vector(packetBytes)
attr source arpReplySent
attr title "ARP replies sent, packetBytes"
vector 239 WiredAndWirelessHostsWithAP.wirelessHost3.udp packetSent:vector(packetBytes) ETV
attr interpolationmode none
attr recordingmode vector(packetBytes)
attr source packetSent
attr title "packets sent, packetBytes"
vector 240 WiredAndWirelessHostsWithAP.wirelessHost3.udp packetReceived:vector(packetBytes) ETV
attr interpolationmode none
attr recordingmode vector(packetBytes)
attr source packetReceived
attr title "packets received, packetBytes"
vector 241 WiredAndWirelessHostsWithAP.wirelessHost3.udp passedUpPk:vector(count) ETV
attr interpolationmode none
attr recordingmode vector(count)
attr source packetSentToUpper
attr title "packets passed up, count"
vector 242 WiredAndWirelessHostsWithAP.wirelessHost3.udp droppedPkWrongPort:vector(count) ETV
attr interpolationmode none
attr recordingmode vector(count)
attr source packetDropReasonIsNoPortFound(packetDropped)
attr title "packets dropped (wrong port), count"
vector 243 WiredAndWirelessHostsWithAP.wirelessHost3.udp droppedPkBadChecksum:vector(count) ETV
attr interpolationmode none
attr recordingmode vector(count)
attr source packetDropReasonIsIncorrectlyReceived(packetDropped)
attr title "packets dropped (checksum error), count"
vector 244 WiredAndWirelessHostsWithAP.wirelessHost3.app[0] echoedPk:vector(packetBytes) ETV
attr interpolationmode none
attr recordingmode vector(packetBytes)
attr source packetSent
attr title "packets echoed, packetBytes"
vector 245 WiredAndWirelessHostsWithAP.wirelessHost3.app[1] rtt:vector ETV
attr interpolationmode none
attr recordingmode vector
attr title "ping round-trip time"
attr unit s
vector 246 WiredAndWirelessHostsWithAP.wirelessHost3.app[1] numLost:vector ETV
attr interpolationmode none
attr recordingmode vector
attr title "pings lost"
vector 247 WiredAndWirelessHostsWithAP.wirelessHost3.app[1] numOutOfOrderArrivals:vector ETV
attr interpolationmode none
attr recordingmode vector
attr title "ping out-of-order arrivals"
vector 248 WiredAndWirelessHostsWithAP.wirelessHost3.app[1] pingTxSeq:vector ETV
attr interpolationmode none
attr recordingmode vector
attr title "ping tx seq"
vector 249 WiredAndWirelessHostsWithAP.wirelessHost3.app[1] pingRxSeq:vector ETV
attr interpolationmode none
attr recordingmode vector
attr title "ping rx seq"
vector 250 WiredAndWirelessHostsWithAP.wirelessHost3.app[2] rtt:vector ETV
attr interpolationmode none
attr recordingmode vector
attr title "ping round-trip time"
attr unit s
vector 251 WiredAndWirelessHostsWithAP.wirelessHost3.app[2] numLost:vector ETV
attr interpolationmode none
attr recordingmode vector
attr title "pings lost"
vector 252 WiredAndWirelessHostsWithAP.wirelessHost3.app[2] numOutOfOrderArrivals:vector ETV
attr interpolationmode none
attr recordingmode vector
attr title "ping out-of-order arrivals"
vector 253 WiredAndWirelessHostsWithAP.wirelessHost3.app[2] pingTxSeq:vector ETV
attr interpolationmode none
attr recordingmode vector
attr title "ping tx seq"
vector 254 WiredAndWirelessHostsWithAP.wirelessHost3.app[2] pingRxSeq:vector ETV
attr interpolationmode none
attr recordingmode vector
attr title "ping rx seq"
vector 255 WiredAndWirelessHostsWithAP.wirelessHost4.lo[0].lo rcvdPkFromHl:vector(packetBytes) ETV
attr interpolationmode none
attr recordingmode vector(packetBytes)
attr source packetReceivedFromUpper
attr title "packets received from higher layer, packetBytes"
vector 256 WiredAndWirelessHostsWithAP.wirelessHost4.lo[0].lo passedUpPk:vector(packetBytes) ETV
attr interpolationmode none
attr recordingmode vector(packetBytes)
attr source packetSentToUpper
attr title "packets passed to higher layer, packetBytes"
vector 257 WiredAndWirelessHostsWithAP.wirelessHost4.lo[0] packetDropInterfaceDown:vector(packetBytes) ETV
attr interpolationmode none
attr recordingmode vector(packetBytes)
attr source packetDropReasonIsInterfaceDown(packetDropped)
attr title "packet drops: interface down, packetBytes"
vector 258 WiredAndWirelessHostsWithAP.wirelessHost4.lo[0] packetDropNoCarrier:vector(packetBytes) ETV
attr interpolationmode none
attr recordingmode vector(packetBytes)
attr source packetDropReasonIsNoCarrier(packetDropped)
attr title "packet drops: no carrier, packetBytes"
vector 259 WiredAndWirelessHostsWithAP.wirelessHost4.wlan[0].agent sentRequest:vector ETV
attr recordingmode vector
attr title "sent requests"
vector 260 WiredAndWirelessHostsWithAP.wirelessHost4.wlan[0].agent acceptConfirm:vector ETV
attr recordingmode vector
attr title "accepted confirms"
vector 261 WiredAndWirelessHostsWithAP.wirelessHost4.wlan[0].agent dropConfirm:vector ETV
attr recordingmode vector
attr title "dropped confirms"
vector 262 WiredAndWirelessHostsWithAP.wirelessHost4.wlan[0].mac.dcf.channelAccess.pendingQueue queueLength:vector ETV
attr autoWarmupFilter false
attr interpolationmode sample-hold
attr recordingmode vector
attr source "warmup(atomic(constant0(packetPushEnded) + count(packetPushStarted) - count(packetPulled) - count(packetRemoved) - count(packetDropped)))"
attr title "queue length"
attr unit pk
vector 263 WiredAndWirelessHostsWithAP.wirelessHost4.wlan[0].mac.dcf.channelAccess.pendingQueue queueBitLength:vector ETV
attr autoWarmupFilter false
attr interpolationmode sample-hold
attr recordingmode vector
attr source "warmup(atomic(constant0(packetPushEnded) + sum(packetLength(packetPushStarted)) - sum(packetLength(packetPulled)) - sum(packetLength(packetRemoved)) - sum(packetLength(packetDropped))))"
attr title "queue bit length"
attr unit b
vector 264 WiredAndWirelessHostsWithAP.wirelessHost4.wlan[0].mac.dcf.channelAccess.pendingQueue queueingTime:vector ETV
attr interpolationmode none
attr recordingmode vector
attr source queueingTime(packetPulled)
attr title "queueing times"
attr unit s
vector 265 WiredAndWirelessHostsWithAP.wirelessHost4.wlan[0].mac.dcf.channelAccess.pendingQueue incomingPacketLengths:vector ETV
attr interpolationmode none
attr recordingmode vector
attr source packetLength(packetPushStarted)
attr title "incoming packet lengths"
attr unit b
vector 266 WiredAndWirelessHostsWithAP.wirelessHost4.wlan[0].mac.dcf.channelAccess.pendingQueue incomingDataRate:vector ETV
attr interpolationmode linear
attr recordingmode vector
attr source throughput(packetPushStarted)
attr title "incoming datarate"
attr unit bps
vector 267 WiredAndWirelessHostsWithAP.wirelessHost4.wlan[0].mac.dcf.channelAccess.pendingQueue outgoingPacketLengths:vector ETV
attr interpolationmode none
attr recordingmode vector
attr source packetLength(packetPulled)
attr title "outgoing packet lengths"
attr unit b
vector 268 WiredAndWirelessHostsWithAP.wirelessHost4.wlan[0].mac.dcf.channelAccess.pendingQueue outgoingDataRate:vector ETV
attr interpolationmode linear
attr recordingmode vector
attr source throughput(packetPulled)
attr title "outgoing datarate"
attr unit bps
vector 269 WiredAndWirelessHostsWithAP.wirelessHost4.wlan[0].mac.dcf.channelAccess.pendingQueue droppedPacketLengthsQueueOverflow:vector ETV
attr interpolationmode none
attr recordingmode vector
attr source packetLength(packetDropReasonIsQueueOverflow(packetDropped))
attr title "dropped packet lengths: queue overflow"
attr unit b
vector 270 WiredAndWirelessHostsWithAP.wirelessHost4.wlan[0].mac.dcf.channelAccess.pendingQueue flowQueueingTime:vector ETV
attr interpolationmode none
attr recordingmode vector
attr source queueingTime(demuxFlow(packetPulled))
attr title "flow queueing times"
attr unit s
vector 271 WiredAndWirelessHostsWithAP.wirelessHost4.wlan[0].mac.dcf.channelAccess.pendingQueue flowIncomingDataRate:vector ETV
attr interpolationmode linear
attr recordingmode vector
attr source throughput(flowPacketLength(demuxFlow(packetPushStarted)))
attr title "flow specific incoming data rate"
attr unit bps
vector 272 WiredAndWirelessHostsWithAP.wirelessHost4.wlan[0].mac.dcf.channelAccess.pendingQueue flowOutgoingDataRate:vector ETV
attr interpolationmode linear
attr recordingmode vector
attr source throughput(flowPacketLength(demuxFlow(packetPulled)))
attr title "flow specific outgoing data rate"
attr unit bps
vector 273 WiredAndWirelessHostsWithAP.wirelessHost4.wlan[0].mac.dcf.channelAccess.inProgressFrames queueingTime:vector ETV
attr interpolationmode none
attr recordingmode vector
attr source queueingTime(packetDequeued)
attr title "queueing times"
vector 274 WiredAndWirelessHostsWithAP.wirelessHost4.wlan[0].mac.dcf.channelAccess.inProgressFrames queueLength:vector ETV
attr autoWarmupFilter false
attr interpolationmode sample-hold
attr recordingmode vector
attr source "warmup(count(packetEnqueued) - count(packetDequeued))"
attr title "queue length"
vector 275 WiredAndWirelessHostsWithAP.wirelessHost4.wlan[0].mac.dcf.channelAccess.contention backoffPeriodGenerated:vector ETV
attr interpolationmode none
attr recordingmode vector
attr title "backoff periods"
vector 276 WiredAndWirelessHostsWithAP.wirelessHost4.wlan[0].mac.dcf.channelAccess.contention backoffActive:vector ETV
attr autoWarmupFilter false
attr interpolationmode sample-hold
attr recordingmode vector
attr source warmup(count(backoffStarted)-count(backoffStopped))
attr title "backoff active"
vector 277 WiredAndWirelessHostsWithAP.wirelessHost4.wlan[0].mac.dcf.channelAccess.contention stateChanged:vector ETV
attr enum IDLE,DEFER,IFS_AND_BACKOFF
attr interpolationmode none
attr recordingmode vector
attr title "contention state changed"
attr type enum
vector 278 WiredAndWirelessHostsWithAP.wirelessHost4.wlan[0].mac.dcf.recipientMacDataService packetDropDuplicateDetected:vector(packetBytes) ETV
attr interpolationmode none
attr recordingmode vector(packetBytes)
attr source packetDropReasonIsDuplicateDetected(packetDropped)
attr title "packet drops: duplicate detected, packetBytes"
vector 279 WiredAndWirelessHostsWithAP.wirelessHost4.wlan[0].mac.dcf.recoveryProcedure contentionWindowChanged:vector ETV
attr interpolationmode sample-hold
attr recordingmode vector
attr title "contention window"
vector 280 WiredAndWirelessHostsWithAP.wirelessHost4.wlan[0].mac.dcf packetSentToPeer:vector(packetBytes) ETV
attr interpolationmode none
attr recordingmode vector(packetBytes)
attr title "packets sent, packetBytes"
vector 281 WiredAndWirelessHostsWithAP.wirelessHost4.wlan[0].mac.dcf packetSentToPeerUnicast:vector(packetBytes) ETV
attr interpolationmode none
attr recordingmode vector(packetBytes)
attr source ieee80211Unicast(packetSentToPeer)
attr title "packets sent: unicast, packetBytes"
vector 282 WiredAndWirelessHostsWithAP.wirelessHost4.wlan[0].mac.dcf packetSentToPeerMulticast:vector(packetBytes) ETV
attr interpolationmode none
attr recordingmode vector(packetBytes)
attr source ieee80211Multicast(packetSentToPeer)
attr title "packets sent: multicast, packetBytes"
vector 283 WiredAndWirelessHostsWithAP.wirelessHost4.wlan[0].mac.dcf packetSentToPeerBroadcast:vector(packetBytes) ETV
attr interpolationmode none
attr recordingmode vector(packetBytes)
attr source ieee80211Broadcast(packetSentToPeer)
attr title "packets sent: broadcast , packetBytes"
vector 284 WiredAndWirelessHostsWithAP.wirelessHost4.wlan[0].mac.dcf packetSentToPeerWithRetry:vector(packetBytes) ETV
attr interpolationmode none
attr recordingmode vector(packetBytes)
attr source ieee80211Retry(packetSentToPeer)
attr title "packets sent: with retry, packetBytes"
vector 285 WiredAndWirelessHostsWithAP.wirelessHost4.wlan[0].mac.dcf packetSentToPeerWithoutRetry:vector(packetBytes) ETV
attr interpolationmode none
attr recordingmode vector(packetBytes)
attr source ieee80211NotRetry(packetSentToPeer)
attr title "packets sent: without retry, packetBytes"
vector 286 WiredAndWirelessHostsWithAP.wirelessHost4.wlan[0].mac.dcf packetReceivedFromPeer:vector(packetBytes) ETV
attr interpolationmode none
attr recordingmode vector(packetBytes)
attr title "packets received, packetBytes"
vector 287 WiredAndWirelessHostsWithAP.wirelessHost4.wlan[0].mac.dcf packetReceivedFromPeerUnicast:vector(packetBytes) ETV
attr interpolationmode none
attr recordingmode vector(packetBytes)
attr source ieee80211Unicast(packetReceivedFromPeer)
attr title "packets received: unicast, packetBytes"
vector 288 WiredAndWirelessHostsWithAP.wirelessHost4.wlan[0].mac.dcf packetReceivedFromPeerMulticast:vector(packetBytes) ETV
attr interpolationmode none
attr recordingmode vector(packetBytes)
attr source ieee80211Multicast(packetReceivedFromPeer)
attr title "packets received: multicast, packetBytes"
vector 289 WiredAndWirelessHostsWithAP.wirelessHost4.wlan[0].mac.dcf packetReceivedFromPeerBroadcast:vector(packetBytes) ETV
attr interpolationmode none
attr recordingmode vector(packetBytes)
attr source ieee80211Broadcast(packetReceivedFromPeer)
attr title "packets received: broadcast, packetBytes"
vector 290 WiredAndWirelessHostsWithAP.wirelessHost4.wlan[0].mac.dcf packetReceivedFromPeerWithRetry:vector(packetBytes) ETV
attr interpolationmode none
attr recordingmode vector(packetBytes)
attr source ieee80211Retry(packetReceivedFromPeer)
attr title "packets received: with retry, packetBytes"
vector 291 WiredAndWirelessHostsWithAP.wirelessHost4.wlan[0].mac.dcf packetReceivedFromPeerWithoutRetry:vector(packetBytes) ETV
attr interpolationmode none
attr recordingmode vector(packetBytes)
attr source ieee80211NotRetry(packetReceivedFromPeer)
attr title "packets received: without retry, packetBytes"
vector 292 WiredAndWirelessHostsWithAP.wirelessHost4.wlan[0].mac.dcf packetDrop:vector(packetBytes) ETV
attr interpolationmode none
attr recordingmode vector(packetBytes)
attr source packetDropped
attr title "packet drops, packetBytes"
vector 293 WiredAndWirelessHostsWithAP.wirelessHost4.wlan[0].mac.dcf packetDropNotAddressedToUs:vector(packetBytes) ETV
attr interpolationmode none
attr recordingmode vector(packetBytes)
attr source packetDropReasonIsNotAddressedToUs(packetDropped)
attr title "packet drops: not addressed to us, packetBytes"
vector 294 WiredAndWirelessHostsWithAP.wirelessHost4.wlan[0].mac.dcf packetDropQueueOverflow:vector(packetBytes) ETV
attr interpolationmode none
[...]
8	363105 249 0 1096 0 0.679570301229 13 0 288 1088 296448
9	363354 112 292 1096 0.377678989968 0.679570301229 4 0 0.000314 0.000468 1.22312e-07
10	363466 110 290 1073 0.377678989968 0.679256301229 4 256 288 1088 296448
11	363576 87 290 949 0.1 0.6 6 0 2560 2560 6553600
12	363663 110 292 1096 0.377678989968 0.679570301229 4 256 288 1088 296448
13	363773 87 292 952 0.1 0.6 6 0 2560 2560 6553600
18	363860 144 299 1125 0.377716989968 0.679659957256 4 3.8e-05 8.9656027e-05 0.000306967083 2.5558430579378e-08
19	364004 224 0 1125 0 0.679659957256 10 0 1 4 4
20	364228 105 290 1073 0.377678989968 0.679256301229 4 3 20 52 854
21	364333 328 0 1095 0 0.679570301229 14 0 1 6 6
22	364661 14056 0 4539 0 9.808760932984 550 0 2 28 52
24	378717 11 0 0 0 0 1 31 31 31 961
25	378728 212 299 1157 0.377716989968 0.68015595733 8 14 36 192 5416
26	378940 186 335 1157 0.377920545319 0.68015595733 7 14 36 160 4392
27	379126 26 299 299 0.377716989968 0.377716989968 1 32 32 32 1024
28	379152 26 299 299 0.377716989968 0.377716989968 1 32 32 32 1024
30	379178 212 299 1157 0.377716989968 0.68015595733 8 14 36 192 5416
31	379390 2839 38 4540 0.008760645828 9.808760932984 106 14 48 4946 234596
32	382229 185 321 1142 0.377876545319 0.68011195733 7 14 48 194 6500
33	382414 2654 38 4540 0.008760645828 9.808760932984 99 48 48 4752 228096
34	385068 2654 38 4540 0.008760645828 9.808760932984 99 48 48 4752 228096
36	387722 2839 38 4540 0.008760645828 9.808760932984 106 14 48 4946 234596
37	390561 362 142 910 0.201456699792 0.653495241237 14 14 48 388 13000
38	390923 362 142 910 0.201456699792 0.653495241237 14 14 48 388 13000
41	391285 224 0 1125 0 0.679659957256 10 0 1 4 4
42	391509 259 292 1142 0.377678989968 0.68011195733 8 24000000 24000000 192000000 4.608e+15
43	391768 894 142 1119 0.201456699792 0.679656301229 33 0 4.4e-05 0.000484 2.1296e-08
45	392662 212 292 1148 0.377678989968 0.68012195733 8 14 36 192 5416
47	392874 3201 38 4540 0.008760645828 9.808760932984 120 14 48 5334 247596
48	396075 362 142 910 0.201456699792 0.653495241237 14 14 48 388 13000
50	396437 362 142 910 0.201456699792 0.653495241237 14 14 48 388 13000
55	396799 438 0 1158 0 0.68015595733 19 0 3 42 108
56	397237 6580 0 4539 0 9.808760932984 257 0 3 489 1209
57	403817 816 293 1158 0.377678989968 0.68015595733 32 0 2 32 48
58	404633 86 0 1074 0 0.679256301229 4 0 0 0 0
71	404719 10 0 0 0 0 1 0 0 0 0
72	404729 10 0 0 0 0 1 0 0 0 0
73	404739 10 0 0 0 0 1 0 0 0 0
89	404749 75 192 831 0.250823630649 0.652399860496 3 1 4 7 21
90	404824 75 704 908 0.650823630649 0.653494974582 3 1 4 7 21
92	404899 250 0 860 0 0.653113860496 13 0 1 4 4
93	405149 258 0 860 0 0.653113860496 13 0 288 1088 296448
94	405407 114 231 860 0.350823630649 0.653113860496 4 0 0.000714 0.001428 1.019592e-06
95	405521 108 229 834 0.350823630649 0.652399860496 4 256 288 1088 296448
96	405629 87 229 707 0.1 0.6 6 0 2560 2560 6553600
97	405716 108 231 860 0.350823630649 0.653113860496 4 256 288 1088 296448
98	405824 87 231 710 0.1 0.6 6 0 2560 2560 6553600
103	405911 145 238 889 0.350861630649 0.653202974658 4 3.8e-05 8.9115385e-05 0.000305344187 2.526830477499e-08
104	406056 230 0 889 0 0.653202974658 10 0 1 4 4
105	406286 107 229 834 0.350823630649 0.652399860496 4 9 31 86 2228
106	406393 334 0 859 0 0.653113860496 14 0 1 6 6
107	406727 15006 0 4536 0 9.808760332206 566 0 2 28 52
109	421733 12 0 0 0 0 1 31 31 31 961
110	421745 216 238 922 0.350861630649 0.653538974582 8 14 36 192 5416
111	421961 189 275 922 0.351004906117 0.653538974582 7 14 36 160 4392
112	422150 27 238 238 0.350861630649 0.350861630649 1 32 32 32 1024
113	422177 27 238 238 0.350861630649 0.350861630649 1 32 32 32 1024
115	422204 216 238 922 0.350861630649 0.653538974582 8 14 36 192 5416
116	422420 2963 41 4537 0.008760658727 9.808760332206 107 14 48 4978 235620
117	425383 189 260 906 0.350960906117 0.653494974582 7 14 48 194 6500
118	425572 2774 41 4537 0.008760658727 9.808760332206 100 32 48 4784 229120
119	428346 2774 41 4537 0.008760658727 9.808760332206 100 32 48 4784 229120
121	431120 2963 41 4537 0.008760658727 9.808760332206 107 14 48 4978 235620
122	434083 570 140 1140 0.201456629139 0.680111679134 21 14 48 548 17392
123	434653 570 140 1140 0.201456629139 0.680111679134 21 14 48 548 17392
126	435223 230 0 889 0 0.653202974658 10 0 1 4 4
127	435453 264 231 906 0.350823630649 0.653494974582 8 24000000 24000000 192000000 4.608e+15
128	435717 1183 140 1156 0.201456629139 0.680155679134 42 0 4.4e-05 0.000616 2.7104e-08
130	436900 216 231 914 0.350823630649 0.653504974582 8 14 36 192 5416
132	437116 3533 41 4537 0.008760658727 9.808760332206 128 14 48 5526 253012
133	440649 570 140 1140 0.201456629139 0.680111679134 21 14 48 548 17392
135	441219 570 140 1140 0.201456629139 0.680111679134 21 14 48 548 17392
140	441789 449 0 923 0 0.653538974582 19 0 3 42 108
141	442238 7237 0 4536 0 9.808760332206 273 0 3 521 1289
142	449475 832 232 923 0.350823630649 0.653538974582 32 0 2 32 48
143	450307 89 0 835 0 0.652399860496 4 0 0 0 0
156	450396 11 0 0 0 0 1 0 0 0 0
157	450407 11 0 0 0 0 1 0 0 0 0
158	450418 11 0 0 0 0 1 0 0 0 0
174	450429 969 48 4546 0.021310817613 9.821310817613 36 1 1 36 36
176	451398 944 374 4546 0.421310817613 9.821310817613 35 1 1 35 35
177	452342 1939 0 4447 0 9.521310817613 75 0 1 35 35
178	454281 2009 0 4447 0 9.521310817613 75 0 256 8960 2293760
179	456290 942 86 4447 0.121310817613 9.521310817613 35 0 0 0 0
180	457232 1012 84 4445 0.121310817613 9.521310817613 35 256 256 8960 2293760
181	458244 1598 84 4445 0.1 9.5 95 0 2560 87040 222822400
182	459842 1012 86 4447 0.121310817613 9.521310817613 35 256 256 8960 2293760
183	460854 1598 86 4447 0.1 9.5 95 0 2560 87040 222822400
188	462452 1152 93 4454 0.121348817613 9.521348817613 35 3.8e-05 3.8e-05 0.00133 5.054e-08
189	463604 1906 0 4454 0 9.521348817613 72 0 1 35 35
190	465510 966 84 4445 0.121310817613 9.521310817613 35 0 31 515 11051
191	466476 1906 0 4446 0 9.521310817613 72 0 1 35 35
192	468382 9288 0 4557 0 9.858763319736 348 0 2 140 280
194	477670 12 0 0 0 0 1 31 31 31 961
195	477682 977 93 4454 0.121348817613 9.521348817613 35 32 32 1120 35840
197	478659 977 93 4454 0.121348817613 9.521348817613 35 32 32 1120 35840
198	479636 977 93 4454 0.121348817613 9.521348817613 35 32 32 1120 35840
200	480613 977 93 4454 0.121348817613 9.521348817613 35 32 32 1120 35840
201	481590 167 119 4414 0.201257901941 9.458801306643 6 32 32 192 6144
203	481757 167 119 4414 0.201257901941 9.458801306643 6 32 32 192 6144
204	481924 167 119 4414 0.201257901941 9.458801306643 6 32 32 192 6144
206	482091 167 119 4414 0.201257901941 9.458801306643 6 32 32 192 6144
207	482258 188 160 615 0.201502108015 0.503998612916 7 14 36 160 4392
208	482446 188 160 615 0.201502108015 0.503998612916 7 14 36 160 4392
211	482634 1906 0 4454 0 9.521348817613 72 0 1 35 35
212	484540 1187 86 4447 0.121310817613 9.521310817613 35 24000000 24000000 840000000 2.016e+16
213	485727 249 400 572 0.501261894516 0.503578373304 9 0 4.4e-05 0.000132 5.808e-09
215	485976 977 86 4447 0.121310817613 9.521310817613 35 32 32 1120 35840
217	486953 355 119 4414 0.201257901941 9.458801306643 13 14 36 352 10536
218	487308 188 160 615 0.201502108015 0.503998612916 7 14 36 160 4392
220	487496 188 160 615 0.201502108015 0.503998612916 7 14 36 160 4392
225	487684 1917 0 4455 0 9.521348817613 73 0 3 177 459
226	489601 2606 0 4557 0 9.858763319736 98 0 3 91 175
227	492207 3768 87 4455 0.121310817613 9.521348817613 140 0 2 140 210
228	495975 980 0 4549 0 9.821310817613 37 0 0 0 0
241	496955 11 0 0 0 0 1 0 0 0 0
242	496966 11 0 0 0 0 1 0 0 0 0
243	496977 11 0 0 0 0 1 0 0 0 0
259	496988 239 56 4517 0.101218848489 9.758761552089 9 1 4 13 27
260	497227 78 384 600 0.501218848489 0.503953566957 3 1 4 7 21
261	497305 135 3915 4517 8.158761552089 9.758761552089 5 1 1 5 5
262	497440 587 0 4554 0 9.858761552089 25 0 1 10 10
263	498027 607 0 4554 0 9.858761552089 25 0 288 2624 689664
264	498634 280 109 4554 0.201218848489 9.858761552089 10 0 0.000674 0.001148 6.78952e-07
265	498914 286 107 4552 0.201218848489 9.858761552089 10 256 288 2624 689664
266	499200 1566 107 4552 0.1 9.8 98 0 8320 23680 108544000
267	500766 286 109 4554 0.201218848489 9.858761552089 10 256 288 2624 689664
268	501052 1566 109 4554 0.1 9.8 98 0 8320 23680 108544000
273	502618 344 116 4561 0.201256848489 9.858799552089 10 3.8e-05 9.0239601e-05 0.000536718387 3.4537481686668e-08
274	502962 554 0 4561 0 9.858799552089 22 0 1 10 10
275	503516 274 107 4552 0.201218848489 9.858761552089 10 0 29 164 3568
276	503790 658 0 4553 0 9.858761552089 26 0 1 12 12
277	504448 17474 0 4562 0 9.858799552089 658 0 2 52 100
279	521922 12 0 0 0 0 1 31 31 31 961
280	521934 383 116 4561 0.201256848489 9.858799552089 14 14 36 384 11560
281	522317 188 157 612 0.20150105457 0.503997566957 7 14 36 160 4392
282	522505 195 116 4561 0.201256848489 9.858799552089 7 32 32 224 7168
283	522700 195 116 4561 0.201256848489 9.858799552089 7 32 32 224 7168
285	522895 383 116 4561 0.201256848489 9.858799552089 14 14 36 384 11560
286	523278 3269 44 4457 0.008761024519 9.521350574214 118 14 48 4946 216164
287	526547 188 144 598 0.20145705457 0.503953566957 7 14 48 194 6500
288	526735 3081 44 4457 0.008761024519 9.521350574214 111 32 48 4752 209664
289	529816 3081 44 4457 0.008761024519 9.521350574214 111 32 48 4752 209664
291	532897 3269 44 4457 0.008761024519 9.521350574214 118 14 48 4946 216164
292	536166 570 265 1146 0.350961379147 0.680112260976 21 14 48 548 17392
293	536736 570 265 1146 0.350961379147 0.680112260976 21 14 48 548 17392
296	537306 554 0 4561 0 9.858799552089 22 0 1 10 10
297	537860 467 109 4554 0.201218848489 9.858761552089 14 24000000 24000000 336000000 8.064e+15
298	538327 1182 265 1159 0.350961379147 0.680156260976 42 0 4.4e-05 0.000616 2.7104e-08
300	539509 383 109 4554 0.201218848489 9.858761552089 14 14 36 384 11560
302	539892 3839 44 4457 0.008761024519 9.521350574214 139 14 48 5494 233556
303	543731 570 265 1146 0.350961379147 0.680112260976 21 14 48 548 17392
305	544301 570 265 1146 0.350961379147 0.680112260976 21 14 48 548 17392
310	544871 771 0 4562 0 9.858799552089 31 0 3 72 186
311	545642 8148 0 4562 0 9.858799552089 307 0 3 571 1405
312	553790 1476 110 4562 0.201218848489 9.858799552089 56 0 2 56 84
313	555266 250 0 4520 0 9.758761552089 10 0 0 0 0
326	555516 11 0 0 0 0 1 0 0 0 0
327	555527 11 0 0 0 0 1 0 0 0 0
328	555538 11 0 0 0 0 1 0 0 0 0
347	555549 55 0 0 0 0 5 0 0 0 0
348	555604 55 0 0 0 0 5 0 0 0 0
379	555659 11 0 0 0 0 1 0 0 0 0
380	555670 11 0 0 0 0 1 0 0 0 0
381	555681 11 0 0 0 0 1 0 0 0 0
400	555692 55 0 0 0 0 5 0 0 0 0
401	555747 55 0 0 0 0 5 0 0 0 0
432	555802 11 0 0 0 0 1 0 0 0 0
433	555813 11 0 0 0 0 1 0 0 0 0
434	555824 11 0 0 0 0 1 0 0 0 0
453	555835 55 0 0 0 0 5 0 0 0 0
454	555890 55 0 0 0 0 5 0 0 0 0
485	555945 11 0 0 0 0 1 0 0 0 0
486	555956 11 0 0 0 0 1 0 0 0 0
487	555967 11 0 0 0 0 1 0 0 0 0
506	555978 55 0 0 0 0 5 0 0 0 0
507	556033 55 0 0 0 0 5 0 0 0 0
538	556088 11 0 0 0 0 1 0 0 0 0
539	556099 11 0 0 0 0 1 0 0 0 0
540	556110 11 0 0 0 0 1 0 0 0 0
559	556121 55 0 0 0 0 5 0 0 0 0
560	556176 55 0 0 0 0 5 0 0 0 0
591	556231 11 0 0 0 0 1 0 0 0 0
592	556242 11 0 0 0 0 1 0 0 0 0
593	556253 11 0 0 0 0 1 0 0 0 0
612	556264 55 0 0 0 0 5 0 0 0 0
613	556319 55 0 0 0 0 5 0 0 0 0
644	556374 11 0 0 0 0 1 0 0 0 0
645	556385 11 0 0 0 0 1 0 0 0 0
646	556396 11 0 0 0 0 1 0 0 0 0
665	556407 55 0 0 0 0 5 0 0 0 0
666	556462 55 0 0 0 0 5 0 0 0 0
697	556517 11 0 0 0 0 1 0 0 0 0
698	556528 11 0 0 0 0 1 0 0 0 0
699	556539 11 0 0 0 0 1 0 0 0 0
718	556550 55 0 0 0 0 5 0 0 0 0
719	556605 55 0 0 0 0 5 0 0 0 0
750	556660 11 0 0 0 0 1 0 0 0 0
751	556671 11 0 0 0 0 1 0 0 0 0
752	556682 11 0 0 0 0 1 0 0 0 0
771	556693 55 0 0 0 0 5 0 0 0 0
772	556748 55 0 0 0 0 5 0 0 0 0
793	556803 55 0 0 0 0 5 0 0 0 0
794	556858 55 0 0 0 0 5 0 0 0 0
815	556913 55 0 0 0 0 5 0 0 0 0
816	556968 55 0 0 0 0 5 0 0 0 0
852	557023 55 0 0 0 0 5 0 0 0 0
853	557078 55 0 0 0 0 5 0 0 0 0
874	557133 55 0 0 0 0 5 0 0 0 0
875	557188 55 0 0 0 0 5 0 0 0 0
911	557243 55 0 0 0 0 5 0 0 0 0
912	557298 55 0 0 0 0 5 0 0 0 0
933	557353 55 0 0 0 0 5 0 0 0 0
934	557408 55 0 0 0 0 5 0 0 0 0
970	557463 55 0 0 0 0 5 0 0 0 0
971	557518 55 0 0 0 0 5 0 0 0 0
992	557573 55 0 0 0 0 5 0 0 0 0
993	557628 55 0 0 0 0 5 0 0 0 0
1029	557683 60 0 0 0 0 5 0 0 0 0
1030	557743 60 0 0 0 0 5 0 0 0 0
1051	557803 60 0 0 0 0 5 0 0 0 0
1052	557863 60 0 0 0 0 5 0 0 0 0
1088	557923 60 0 0 0 0 5 0 0 0 0
1089	557983 60 0 0 0 0 5 0 0 0 0
1110	558043 60 0 0 0 0 5 0 0 0 0
1111	558103 60 0 0 0 0 5 0 0 0 0
1132	558163 60 0 0 0 0 5 0 0 0 0
1133	558223 60 0 0 0 0 5 0 0 0 0
1154	558283 60 0 0 0 0 5 0 0 0 0
1155	558343 60 0 0 0 0 5 0 0 0 0
1176	558403 60 0 0 0 0 5 0 0 0 0
1177	558463 60 0 0 0 0 5 0 0 0 0
1198	558523 60 0 0 0 0 5 0 0 0 0
1199	558583 60 0 0 0 0 5 0 0 0 0
1220	558643 60 0 0 0 0 5 0 0 0 0
1221	558703 60 0 0 0 0 5 0 0 0 0
1242	558763 60 0 0 0 0 5 0 0 0 0
1243	558823 60 0 0 0 0 5 0 0 0 0
1276	558883 6236 0 4527 0 9.808712929697 227 0 1 111 111
1277	565119 6458 0 4527 0 9.808712929697 227 0 384 41664 15733248
1278	571577 3166 28 4527 0.008712929697 9.808712929697 111 0 0.000694 0.004316 2.069104e-06
1279	574743 3310 26 4525 0.008712929697 9.808712929697 111 272 384 41664 15733248
1280	578053 1938 61 4525 0.1 9.8 98 3840 20480 412800 2145075200
1281	579991 3310 28 4527 0.008712929697 9.808712929697 111 272 384 41664 15733248
1282	583301 1938 63 4527 0.1 9.8 98 3840 20480 412800 2145075200
1287	585239 3827 35 4534 0.008758929697 9.808758929697 111 4.6e-05 9.4206093e-05 0.005642066765 3.0817995761494e-07
1288	589066 6202 0 4534 0 9.808758929697 224 0 1 111 111
1289	595268 3155 26 4525 0.008712929697 9.808712929697 111 0 31 1481 28821
1290	598423 6688 0 4526 0 9.808712929697 242 0 1 120 120
1291	605111 27008 0 4535 0 9.808758929697 974 0 2 498 978
1293	632119 13 0 0 0 0 1 31 31 31 961
1294	632132 3452 35 4534 0.008758929697 9.808758929697 120 14 48 5334 247596
1295	635584 590 137 1137 0.201454951525 0.680110129238 21 14 48 582 19500
1296	636174 2862 35 4534 0.008758929697 9.808758929697 99 48 48 4752 228096
1297	639036 2862 35 4534 0.008758929697 9.808758929697 99 48 48 4752 228096
1299	641898 3452 35 4534 0.008758929697 9.808758929697 120 14 48 5334 247596
1300	645350 676 122 1161 0.201258951525 0.680157785431 24 14 36 576 16248
1301	646026 592 162 1161 0.201503157618 0.680157785431 21 14 36 480 13176
1302	646618 84 122 302 0.201258951525 0.377718767631 3 32 32 96 3072
1303	646702 84 122 302 0.201258951525 0.377718767631 3 32 32 96 3072
1305	646786 676 122 1161 0.201258951525 0.680157785431 24 14 36 576 16248
1310	647462 6202 0 4534 0 9.808758929697 224 0 1 111 111
1311	653664 4172 28 4527 0.008712929697 9.808712929697 120 24000000 24000000 2880000000 6.912e+16
1312	657836 1048 137 1155 0.201454951525 0.680154129238 36 0 4.4e-05 0.000528 2.3232e-08
1314	658884 3452 28 4527 0.008712929697 9.808712929697 120 14 48 5334 247596
1316	662336 676 122 1161 0.201258951525 0.680157785431 24 14 36 576 16248
1324	663012 6700 0 4535 0 9.808758929697 243 0 3 602 1564
1325	669712 7980 0 4535 0 9.808758929697 289 0 3 217 361
1326	677692 13328 29 4535 0.008712929697 9.808758929697 480 0 2 480 720
1327	691020 12 0 0 0 0 1 0 0 0 0
1330	691032 60 0 0 0 0 5 0 0 0 0
1331	691092 60 0 0 0 0 5 0 0 0 0
1352	691152 60 0 0 0 0 5 0 0 0 0
1353	691212 60 0 0 0 0 5 0 0 0 0
1374	691272 60 0 0 0 0 5 0 0 0 0
1375	691332 60 0 0 0 0 5 0 0 0 0
11	691392 1391 4562 4562 0.7 9.858801282712 93 0 8320 8320 69222400
13	692783 1391 4562 4562 0.7 9.858801282712 93 0 8320 8320 69222400
96	694174 1391 4562 4562 0.7 9.858801282712 93 0 8320 8320 69222400
98	695565 1391 4562 4562 0.7 9.858801282712 93 0 8320 8320 69222400
181	696956 78 4562 4562 9.6 9.858801282712 4 0 2560 2560 6553600
183	697034 78 4562 4562 9.6 9.858801282712 4 0 2560 2560 6553600
266	697112 41 4562 4562 9.858801282712 9.858801282712 1 4353.6465225402 4353.6465225402 4353.6465225402 18954238.043226
268	697153 41 4562 4562 9.858801282712 9.858801282712 1 4353.6465225402 4353.6465225402 4353.6465225402 18954238.043226
351	697194 1577 4562 4562 0.1 9.858801282712 99 0 0 0 0
353	698771 1577 4562 4562 0.1 9.858801282712 99 0 0 0 0
404	700348 1577 4562 4562 0.1 9.858801282712 99 0 0 0 0
406	701925 1577 4562 4562 0.1 9.858801282712 99 0 0 0 0
457	703502 1577 4562 4562 0.1 9.858801282712 99 0 0 0 0
459	705079 1577 4562 4562 0.1 9.858801282712 99 0 0 0 0
510	706656 1577 4562 4562 0.1 9.858801282712 99 0 0 0 0
512	708233 1577 4562 4562 0.1 9.858801282712 99 0 0 0 0
563	709810 1577 4562 4562 0.1 9.858801282712 99 0 0 0 0
565	711387 1577 4562 4562 0.1 9.858801282712 99 0 0 0 0
616	712964 1577 4562 4562 0.1 9.858801282712 99 0 0 0 0
618	714541 1577 4562 4562 0.1 9.858801282712 99 0 0 0 0
669	716118 1577 4562 4562 0.1 9.858801282712 99 0 0 0 0
671	717695 1577 4562 4562 0.1 9.858801282712 99 0 0 0 0
722	719272 1577 4562 4562 0.1 9.858801282712 99 0 0 0 0
724	720849 1577 4562 4562 0.1 9.858801282712 99 0 0 0 0
775	722426 1577 4562 4562 0.1 9.858801282712 99 0 0 0 0
777	724003 1577 4562 4562 0.1 9.858801282712 99 0 0 0 0
797	725580 1577 4562 4562 0.1 9.858801282712 99 0 0 0 0
799	727157 1577 4562 4562 0.1 9.858801282712 99 0 0 0 0
819	728734 1577 4562 4562 0.1 9.858801282712 99 0 0 0 0
821	730311 1577 4562 4562 0.1 9.858801282712 99 0 0 0 0
856	731888 1577 4562 4562 0.1 9.858801282712 99 0 0 0 0
858	733465 1577 4562 4562 0.1 9.858801282712 99 0 0 0 0
878	735042 1577 4562 4562 0.1 9.858801282712 99 0 0 0 0
880	736619 1577 4562 4562 0.1 9.858801282712 99 0 0 0 0
915	738196 1577 4562 4562 0.1 9.858801282712 99 0 0 0 0
917	739773 1577 4562 4562 0.1 9.858801282712 99 0 0 0 0
937	741350 1577 4562 4562 0.1 9.858801282712 99 0 0 0 0
939	742927 1577 4562 4562 0.1 9.858801282712 99 0 0 0 0
974	744504 1577 4562 4562 0.1 9.858801282712 99 0 0 0 0
976	746081 1577 4562 4562 0.1 9.858801282712 99 0 0 0 0
996	747658 1577 4562 4562 0.1 9.858801282712 99 0 0 0 0
998	749235 1577 4562 4562 0.1 9.858801282712 99 0 0 0 0
1033	750812 1676 4562 4562 0.1 9.858801282712 99 0 0 0 0
1035	752488 1676 4562 4562 0.1 9.858801282712 99 0 0 0 0
1055	754164 1676 4562 4562 0.1 9.858801282712 99 0 0 0 0
1057	755840 1676 4562 4562 0.1 9.858801282712 99 0 0 0 0
1092	757516 1676 4562 4562 0.1 9.858801282712 99 0 0 0 0
1094	759192 1676 4562 4562 0.1 9.858801282712 99 0 0 0 0
1114	760868 1676 4562 4562 0.1 9.858801282712 99 0 0 0 0
1116	762544 1676 4562 4562 0.1 9.858801282712 99 0 0 0 0
1136	764220 1676 4562 4562 0.1 9.858801282712 99 0 0 0 0
1138	765896 1676 4562 4562 0.1 9.858801282712 99 0 0 0 0
1158	767572 1676 4562 4562 0.1 9.858801282712 99 0 0 0 0
1160	769248 1676 4562 4562 0.1 9.858801282712 99 0 0 0 0
1180	770924 1676 4562 4562 0.1 9.858801282712 99 0 0 0 0
1182	772600 1676 4562 4562 0.1 9.858801282712 99 0 0 0 0
1202	774276 1676 4562 4562 0.1 9.858801282712 99 0 0 0 0
1204	775952 1676 4562 4562 0.1 9.858801282712 99 0 0 0 0
1224	777628 1676 4562 4562 0.1 9.858801282712 99 0 0 0 0
1226	779304 1676 4562 4562 0.1 9.858801282712 99 0 0 0 0
1246	780980 1676 4562 4562 0.1 9.858801282712 99 0 0 0 0
1248	782656 1676 4562 4562 0.1 9.858801282712 99 0 0 0 0
1280	784332 42 4562 4562 9.858801282712 9.858801282712 1 6530.4697838103 6530.4697838103 6530.4697838103 42647035.597259
1282	784374 42 4562 4562 9.858801282712 9.858801282712 1 6530.4697838103 6530.4697838103 6530.4697838103 42647035.597259
1334	784416 1676 4562 4562 0.1 9.858801282712 99 0 0 0 0
1336	786092 1676 4562 4562 0.1 9.858801282712 99 0 0 0 0
1356	787768 1676 4562 4562 0.1 9.858801282712 99 0 0 0 0
1358	789444 1676 4562 4562 0.1 9.858801282712 99 0 0 0 0
1378	791120 1676 4562 4562 0.1 9.858801282712 99 0 0 0 0
1380	792796 1676 4562 4562 0.1 9.858801282712 99 0 0 0 0

