version 3
run General-0-20250223-12:38:54-19252
attr configname General
attr datetime 20250223-12:38:54
attr datetimef 20250223-123854
attr experiment General
attr inifile omnetpp.ini
attr iterationvars ""
attr iterationvarsd ""
attr iterationvarsf ""
attr measurement ""
attr network sdnproject.WiredAndWirelessHostsWithAP
attr processid 19252
attr repetition 0
attr replication #0
attr resultdir results
attr runnumber 0
attr seedset 0
config image-path ../../../../inet4.5/images
config network sdnproject.WiredAndWirelessHostsWithAP
config sim-time-limit 400s
config **.addDefaultRoutes true
config **.*Host*.numApps 3
config **.*Host*.app[0].typename UdpEchoApp
config **.*Host*.app[0].localPort 1000
config **.*Host*.app[*].typename PingApp
config **.wirelessHost1.app[1].destAddresses "\"wiredHost8\""
config **.*Host*.app[1..].destPort 1000
config **.initialZ 0m
config *.bts.radioMedium.txPower 30mW
config *.bts.radioMedium.centerFrequency 28GHz
config *.bts.wlan[0].radioMedium "\"IRadioMedium\""
config *.bts.wlan[0].radio.transmitter.communicationRange 500m
config *.radioMedium.phyMode "\"OFDM\""
config *.wirelessHost1.mobility.typename TractorMobility
config *.wirelessHost1.mobility.x1 2000m
config *.wirelessHost1.mobility.y1 1542m
config *.wirelessHost1.mobility.x2 2100m
config *.wirelessHost1.mobility.y2 1800m
config *.wirelessHost1.mobility.rowCount 5
config *.wirelessHost1.mobility.speed 50mps
config *.wirelessHost2.mobility.typename TractorMobility
config *.wirelessHost2.mobility.x1 967m
config *.wirelessHost2.mobility.y1 1542m
config *.wirelessHost2.mobility.x2 1300m
config *.wirelessHost2.mobility.y2 1600m
config *.wirelessHost2.mobility.rowCount 6
config *.wirelessHost2.mobility.speed 80mps
config *.wirelessHost3.mobility.typename TractorMobility
config *.wirelessHost3.mobility.x1 1179m
config *.wirelessHost3.mobility.y1 700m
config *.wirelessHost3.mobility.x2 600m
config *.wirelessHost3.mobility.y2 300m
config *.wirelessHost3.mobility.rowCount 6
config *.wirelessHost3.mobility.speed 90mps
config *.wirelessHost4.mobility.typename TractorMobility
config *.wirelessHost4.mobility.x1 1416m
config *.wirelessHost4.mobility.y1 911m
config *.wirelessHost4.mobility.x2 1200m
config *.wirelessHost4.mobility.y2 500m
config *.wirelessHost4.mobility.rowCount 7
config *.wirelessHost4.mobility.speed 100mps
config *.bts.wlan[0].radio.displayCommunicationRange true
config *.visualizer.mediumVisualizer.displaySignals true
config *.visualizer.physicalLinkVisualizer.displayLinks true

par WiredAndWirelessHostsWithAP.bts.ethg$o[0].channel typename "\"inet.node.ethernet.Eth100M\""
par WiredAndWirelessHostsWithAP.bts.ethg$o[0].channel disabled false
attr mutable ""
par WiredAndWirelessHostsWithAP.bts.ethg$o[0].channel delay 5e-08s
attr mutable ""
attr unit s
par WiredAndWirelessHostsWithAP.bts.ethg$o[0].channel datarate 1e+08bps
attr mutable ""
attr unit bps
par WiredAndWirelessHostsWithAP.bts.ethg$o[0].channel ber 0
attr mutable ""
par WiredAndWirelessHostsWithAP.bts.ethg$o[0].channel per 0
attr mutable ""
par WiredAndWirelessHostsWithAP.bts.ethg$o[0].channel length 10m
attr unit m
par WiredAndWirelessHostsWithAP.router1.ethg$o[0].channel typename "\"inet.node.ethernet.Eth100M\""
par WiredAndWirelessHostsWithAP.router1.ethg$o[0].channel disabled false
attr mutable ""
par WiredAndWirelessHostsWithAP.router1.ethg$o[0].channel delay 5e-08s
attr mutable ""
attr unit s
par WiredAndWirelessHostsWithAP.router1.ethg$o[0].channel datarate 1e+08bps
attr mutable ""
attr unit bps
par WiredAndWirelessHostsWithAP.router1.ethg$o[0].channel ber 0
attr mutable ""
par WiredAndWirelessHostsWithAP.router1.ethg$o[0].channel per 0
attr mutable ""
par WiredAndWirelessHostsWithAP.router1.ethg$o[0].channel length 10m
attr unit m
par WiredAndWirelessHostsWithAP.router1.ethg$o[1].channel typename "\"inet.node.ethernet.Eth100M\""
par WiredAndWirelessHostsWithAP.router1.ethg$o[1].channel disabled false
attr mutable ""
par WiredAndWirelessHostsWithAP.router1.ethg$o[1].channel delay 5e-08s
attr mutable ""
attr unit s
par WiredAndWirelessHostsWithAP.router1.ethg$o[1].channel datarate 1e+08bps
attr mutable ""
attr unit bps
par WiredAndWirelessHostsWithAP.router1.ethg$o[1].channel ber 0
attr mutable ""
par WiredAndWirelessHostsWithAP.router1.ethg$o[1].channel per 0
attr mutable ""
par WiredAndWirelessHostsWithAP.router1.ethg$o[1].channel length 10m
attr unit m
par WiredAndWirelessHostsWithAP.router2.ethg$o[0].channel typename "\"inet.node.ethernet.Eth100M\""
par WiredAndWirelessHostsWithAP.router2.ethg$o[0].channel disabled false
attr mutable ""
par WiredAndWirelessHostsWithAP.router2.ethg$o[0].channel delay 5e-08s
attr mutable ""
attr unit s
par WiredAndWirelessHostsWithAP.router2.ethg$o[0].channel datarate 1e+08bps
attr mutable ""
attr unit bps
par WiredAndWirelessHostsWithAP.router2.ethg$o[0].channel ber 0
attr mutable ""
par WiredAndWirelessHostsWithAP.router2.ethg$o[0].channel per 0
attr mutable ""
par WiredAndWirelessHostsWithAP.router2.ethg$o[0].channel length 10m
attr unit m
par WiredAndWirelessHostsWithAP.router1.ethg$o[2].channel typename "\"inet.node.ethernet.Eth100M\""
par WiredAndWirelessHostsWithAP.router1.ethg$o[2].channel disabled false
attr mutable ""
par WiredAndWirelessHostsWithAP.router1.ethg$o[2].channel delay 5e-08s
attr mutable ""
attr unit s
par WiredAndWirelessHostsWithAP.router1.ethg$o[2].channel datarate 1e+08bps
attr mutable ""
attr unit bps
par WiredAndWirelessHostsWithAP.router1.ethg$o[2].channel ber 0
attr mutable ""
par WiredAndWirelessHostsWithAP.router1.ethg$o[2].channel per 0
attr mutable ""
par WiredAndWirelessHostsWithAP.router1.ethg$o[2].channel length 10m
attr unit m
par WiredAndWirelessHostsWithAP.router3.ethg$o[0].channel typename "\"inet.node.ethernet.Eth100M\""
par WiredAndWirelessHostsWithAP.router3.ethg$o[0].channel disabled false
attr mutable ""
par WiredAndWirelessHostsWithAP.router3.ethg$o[0].channel delay 5e-08s
attr mutable ""
attr unit s
par WiredAndWirelessHostsWithAP.router3.ethg$o[0].channel datarate 1e+08bps
attr mutable ""
attr unit bps
par WiredAndWirelessHostsWithAP.router3.ethg$o[0].channel ber 0
attr mutable ""
par WiredAndWirelessHostsWithAP.router3.ethg$o[0].channel per 0
attr mutable ""
par WiredAndWirelessHostsWithAP.router3.ethg$o[0].channel length 10m
attr unit m
par WiredAndWirelessHostsWithAP.router3.ethg$o[1].channel typename "\"inet.node.ethernet.Eth100M\""
par WiredAndWirelessHostsWithAP.router3.ethg$o[1].channel disabled false
attr mutable ""
par WiredAndWirelessHostsWithAP.router3.ethg$o[1].channel delay 5e-08s
attr mutable ""
attr unit s
par WiredAndWirelessHostsWithAP.router3.ethg$o[1].channel datarate 1e+08bps
attr mutable ""
attr unit bps
par WiredAndWirelessHostsWithAP.router3.ethg$o[1].channel ber 0
attr mutable ""
par WiredAndWirelessHostsWithAP.router3.ethg$o[1].channel per 0
attr mutable ""
par WiredAndWirelessHostsWithAP.router3.ethg$o[1].channel length 10m
attr unit m
par WiredAndWirelessHostsWithAP.router4.ethg$o[0].channel typename "\"inet.node.ethernet.Eth100M\""
par WiredAndWirelessHostsWithAP.router4.ethg$o[0].channel disabled false
attr mutable ""
par WiredAndWirelessHostsWithAP.router4.ethg$o[0].channel delay 5e-08s
attr mutable ""
attr unit s
par WiredAndWirelessHostsWithAP.router4.ethg$o[0].channel datarate 1e+08bps
attr mutable ""
attr unit bps
par WiredAndWirelessHostsWithAP.router4.ethg$o[0].channel ber 0
attr mutable ""
par WiredAndWirelessHostsWithAP.router4.ethg$o[0].channel per 0
attr mutable ""
par WiredAndWirelessHostsWithAP.router4.ethg$o[0].channel length 10m
attr unit m
par WiredAndWirelessHostsWithAP.router2.ethg$o[1].channel typename "\"inet.node.ethernet.Eth100M\""
par WiredAndWirelessHostsWithAP.router2.ethg$o[1].channel disabled false
attr mutable ""
par WiredAndWirelessHostsWithAP.router2.ethg$o[1].channel delay 5e-08s
attr mutable ""
attr unit s
par WiredAndWirelessHostsWithAP.router2.ethg$o[1].channel datarate 1e+08bps
attr mutable ""
attr unit bps
par WiredAndWirelessHostsWithAP.router2.ethg$o[1].channel ber 0
attr mutable ""
par WiredAndWirelessHostsWithAP.router2.ethg$o[1].channel per 0
attr mutable ""
par WiredAndWirelessHostsWithAP.router2.ethg$o[1].channel length 10m
attr unit m
par WiredAndWirelessHostsWithAP.router5.ethg$o[0].channel typename "\"inet.node.ethernet.Eth100M\""
par WiredAndWirelessHostsWithAP.router5.ethg$o[0].channel disabled false
attr mutable ""
par WiredAndWirelessHostsWithAP.router5.ethg$o[0].channel delay 5e-08s
attr mutable ""
attr unit s
par WiredAndWirelessHostsWithAP.router5.ethg$o[0].channel datarate 1e+08bps
attr mutable ""
attr unit bps
par WiredAndWirelessHostsWithAP.router5.ethg$o[0].channel ber 0
attr mutable ""
par WiredAndWirelessHostsWithAP.router5.ethg$o[0].channel per 0
attr mutable ""
par WiredAndWirelessHostsWithAP.router5.ethg$o[0].channel length 10m
attr unit m
par WiredAndWirelessHostsWithAP.router5.ethg$o[1].channel typename "\"inet.node.ethernet.Eth100M\""
par WiredAndWirelessHostsWithAP.router5.ethg$o[1].channel disabled false
attr mutable ""
par WiredAndWirelessHostsWithAP.router5.ethg$o[1].channel delay 5e-08s
attr mutable ""
attr unit s
par WiredAndWirelessHostsWithAP.router5.ethg$o[1].channel datarate 1e+08bps
attr mutable ""
attr unit bps
par WiredAndWirelessHostsWithAP.router5.ethg$o[1].channel ber 0
attr mutable ""
par WiredAndWirelessHostsWithAP.router5.ethg$o[1].channel per 0
attr mutable ""
par WiredAndWirelessHostsWithAP.router5.ethg$o[1].channel length 10m
attr unit m
par WiredAndWirelessHostsWithAP.router6.ethg$o[0].channel typename "\"inet.node.ethernet.Eth100M\""
par WiredAndWirelessHostsWithAP.router6.ethg$o[0].channel disabled false
attr mutable ""
par WiredAndWirelessHostsWithAP.router6.ethg$o[0].channel delay 5e-08s
attr mutable ""
attr unit s
par WiredAndWirelessHostsWithAP.router6.ethg$o[0].channel datarate 1e+08bps
attr mutable ""
attr unit bps
par WiredAndWirelessHostsWithAP.router6.ethg$o[0].channel ber 0
attr mutable ""
par WiredAndWirelessHostsWithAP.router6.ethg$o[0].channel per 0
attr mutable ""
par WiredAndWirelessHostsWithAP.router6.ethg$o[0].channel length 10m
attr unit m
par WiredAndWirelessHostsWithAP.router4.ethg$o[1].channel typename "\"inet.node.ethernet.Eth100M\""
par WiredAndWirelessHostsWithAP.router4.ethg$o[1].channel disabled false
attr mutable ""
par WiredAndWirelessHostsWithAP.router4.ethg$o[1].channel delay 5e-08s
attr mutable ""
attr unit s
par WiredAndWirelessHostsWithAP.router4.ethg$o[1].channel datarate 1e+08bps
attr mutable ""
attr unit bps
par WiredAndWirelessHostsWithAP.router4.ethg$o[1].channel ber 0
attr mutable ""
par WiredAndWirelessHostsWithAP.router4.ethg$o[1].channel per 0
attr mutable ""
par WiredAndWirelessHostsWithAP.router4.ethg$o[1].channel length 10m
attr unit m
par WiredAndWirelessHostsWithAP.router6.ethg$o[1].channel typename "\"inet.node.ethernet.Eth100M\""
par WiredAndWirelessHostsWithAP.router6.ethg$o[1].channel disabled false
attr mutable ""
par WiredAndWirelessHostsWithAP.router6.ethg$o[1].channel delay 5e-08s
attr mutable ""
attr unit s
par WiredAndWirelessHostsWithAP.router6.ethg$o[1].channel datarate 1e+08bps
attr mutable ""
attr unit bps
par WiredAndWirelessHostsWithAP.router6.ethg$o[1].channel ber 0
attr mutable ""
par WiredAndWirelessHostsWithAP.router6.ethg$o[1].channel per 0
attr mutable ""
par WiredAndWirelessHostsWithAP.router6.ethg$o[1].channel length 10m
attr unit m
par WiredAndWirelessHostsWithAP.wiredHost1.ethg$o[0].channel typename "\"inet.node.ethernet.Eth100M\""
par WiredAndWirelessHostsWithAP.wiredHost1.ethg$o[0].channel disabled false
attr mutable ""
par WiredAndWirelessHostsWithAP.wiredHost1.ethg$o[0].channel delay 5e-08s
attr mutable ""
attr unit s
par WiredAndWirelessHostsWithAP.wiredHost1.ethg$o[0].channel datarate 1e+08bps
attr mutable ""
attr unit bps
par WiredAndWirelessHostsWithAP.wiredHost1.ethg$o[0].channel ber 0
attr mutable ""
par WiredAndWirelessHostsWithAP.wiredHost1.ethg$o[0].channel per 0
attr mutable ""
par WiredAndWirelessHostsWithAP.wiredHost1.ethg$o[0].channel length 10m
attr unit m
par WiredAndWirelessHostsWithAP.bts.ethg$o[1].channel typename "\"inet.node.ethernet.Eth100M\""
par WiredAndWirelessHostsWithAP.bts.ethg$o[1].channel disabled false
attr mutable ""
par WiredAndWirelessHostsWithAP.bts.ethg$o[1].channel delay 5e-08s
attr mutable ""
attr unit s
par WiredAndWirelessHostsWithAP.bts.ethg$o[1].channel datarate 1e+08bps
attr mutable ""
attr unit bps
par WiredAndWirelessHostsWithAP.bts.ethg$o[1].channel ber 0
attr mutable ""
par WiredAndWirelessHostsWithAP.bts.ethg$o[1].channel per 0
attr mutable ""
par WiredAndWirelessHostsWithAP.bts.ethg$o[1].channel length 10m
attr unit m
par WiredAndWirelessHostsWithAP.wiredHost2.ethg$o[0].channel typename "\"inet.node.ethernet.Eth100M\""
par WiredAndWirelessHostsWithAP.wiredHost2.ethg$o[0].channel disabled false
attr mutable ""
par WiredAndWirelessHostsWithAP.wiredHost2.ethg$o[0].channel delay 5e-08s
attr mutable ""
attr unit s
par WiredAndWirelessHostsWithAP.wiredHost2.ethg$o[0].channel datarate 1e+08bps
attr mutable ""
attr unit bps
par WiredAndWirelessHostsWithAP.wiredHost2.ethg$o[0].channel ber 0
attr mutable ""
par WiredAndWirelessHostsWithAP.wiredHost2.ethg$o[0].channel per 0
attr mutable ""
par WiredAndWirelessHostsWithAP.wiredHost2.ethg$o[0].channel length 10m
attr unit m
par WiredAndWirelessHostsWithAP.bts.ethg$o[2].channel typename "\"inet.node.ethernet.Eth100M\""
par WiredAndWirelessHostsWithAP.bts.ethg$o[2].channel disabled false
attr mutable ""
par WiredAndWirelessHostsWithAP.bts.ethg$o[2].channel delay 5e-08s
attr mutable ""
attr unit s
par WiredAndWirelessHostsWithAP.bts.ethg$o[2].channel datarate 1e+08bps
attr mutable ""
attr unit bps
par WiredAndWirelessHostsWithAP.bts.ethg$o[2].channel ber 0
attr mutable ""
par WiredAndWirelessHostsWithAP.bts.ethg$o[2].channel per 0
attr mutable ""
par WiredAndWirelessHostsWithAP.bts.ethg$o[2].channel length 10m
attr unit m
par WiredAndWirelessHostsWithAP.wiredHost3.ethg$o[0].channel typename "\"inet.node.ethernet.Eth100M\""
par WiredAndWirelessHostsWithAP.wiredHost3.ethg$o[0].channel disabled false
attr mutable ""
par WiredAndWirelessHostsWithAP.wiredHost3.ethg$o[0].channel delay 5e-08s
attr mutable ""
attr unit s
par WiredAndWirelessHostsWithAP.wiredHost3.ethg$o[0].channel datarate 1e+08bps
attr mutable ""
attr unit bps
par WiredAndWirelessHostsWithAP.wiredHost3.ethg$o[0].channel ber 0
attr mutable ""
par WiredAndWirelessHostsWithAP.wiredHost3.ethg$o[0].channel per 0
attr mutable ""
par WiredAndWirelessHostsWithAP.wiredHost3.ethg$o[0].channel length 10m
attr unit m
par WiredAndWirelessHostsWithAP.router6.ethg$o[2].channel typename "\"inet.node.ethernet.Eth100M\""
par WiredAndWirelessHostsWithAP.router6.ethg$o[2].channel disabled false
attr mutable ""
par WiredAndWirelessHostsWithAP.router6.ethg$o[2].channel delay 5e-08s
attr mutable ""
attr unit s
par WiredAndWirelessHostsWithAP.router6.ethg$o[2].channel datarate 1e+08bps
attr mutable ""
attr unit bps
par WiredAndWirelessHostsWithAP.router6.ethg$o[2].channel ber 0
attr mutable ""
par WiredAndWirelessHostsWithAP.router6.ethg$o[2].channel per 0
attr mutable ""
par WiredAndWirelessHostsWithAP.router6.ethg$o[2].channel length 10m
attr unit m
par WiredAndWirelessHostsWithAP.wiredHost4.ethg$o[0].channel typename "\"inet.node.ethernet.Eth100M\""
par WiredAndWirelessHostsWithAP.wiredHost4.ethg$o[0].channel disabled false
attr mutable ""
par WiredAndWirelessHostsWithAP.wiredHost4.ethg$o[0].channel delay 5e-08s
attr mutable ""
attr unit s
par WiredAndWirelessHostsWithAP.wiredHost4.ethg$o[0].channel datarate 1e+08bps
attr mutable ""
attr unit bps
par WiredAndWirelessHostsWithAP.wiredHost4.ethg$o[0].channel ber 0
attr mutable ""
par WiredAndWirelessHostsWithAP.wiredHost4.ethg$o[0].channel per 0
attr mutable ""
par WiredAndWirelessHostsWithAP.wiredHost4.ethg$o[0].channel length 10m
attr unit m
par WiredAndWirelessHostsWithAP.router6.ethg$o[3].channel typename "\"inet.node.ethernet.Eth100M\""
par WiredAndWirelessHostsWithAP.router6.ethg$o[3].channel disabled false
attr mutable ""
par WiredAndWirelessHostsWithAP.router6.ethg$o[3].channel delay 5e-08s
attr mutable ""
attr unit s
par WiredAndWirelessHostsWithAP.router6.ethg$o[3].channel datarate 1e+08bps
attr mutable ""
attr unit bps
par WiredAndWirelessHostsWithAP.router6.ethg$o[3].channel ber 0
attr mutable ""
par WiredAndWirelessHostsWithAP.router6.ethg$o[3].channel per 0
attr mutable ""
par WiredAndWirelessHostsWithAP.router6.ethg$o[3].channel length 10m
attr unit m
par WiredAndWirelessHostsWithAP.wiredHost5.ethg$o[0].channel typename "\"inet.node.ethernet.Eth100M\""
par WiredAndWirelessHostsWithAP.wiredHost5.ethg$o[0].channel disabled false
attr mutable ""
par WiredAndWirelessHostsWithAP.wiredHost5.ethg$o[0].channel delay 5e-08s
attr mutable ""
attr unit s
par WiredAndWirelessHostsWithAP.wiredHost5.ethg$o[0].channel datarate 1e+08bps
attr mutable ""
attr unit bps
par WiredAndWirelessHostsWithAP.wiredHost5.ethg$o[0].channel ber 0
attr mutable ""
par WiredAndWirelessHostsWithAP.wiredHost5.ethg$o[0].channel per 0
attr mutable ""
par WiredAndWirelessHostsWithAP.wiredHost5.ethg$o[0].channel length 10m
attr unit m
par WiredAndWirelessHostsWithAP.router6.ethg$o[4].channel typename "\"inet.node.ethernet.Eth100M\""
par WiredAndWirelessHostsWithAP.router6.ethg$o[4].channel disabled false
attr mutable ""
par WiredAndWirelessHostsWithAP.router6.ethg$o[4].channel delay 5e-08s
attr mutable ""
attr unit s
par WiredAndWirelessHostsWithAP.router6.ethg$o[4].channel datarate 1e+08bps
attr mutable ""
attr unit bps
par WiredAndWirelessHostsWithAP.router6.ethg$o[4].channel ber 0
attr mutable ""
par WiredAndWirelessHostsWithAP.router6.ethg$o[4].channel per 0
attr mutable ""
par WiredAndWirelessHostsWithAP.router6.ethg$o[4].channel length 10m
attr unit m
par WiredAndWirelessHostsWithAP.wiredHost6.ethg$o[0].channel typename "\"inet.node.ethernet.Eth100M\""
par WiredAndWirelessHostsWithAP.wiredHost6.ethg$o[0].channel disabled false
attr mutable ""
par WiredAndWirelessHostsWithAP.wiredHost6.ethg$o[0].channel delay 5e-08s
attr mutable ""
attr unit s
par WiredAndWirelessHostsWithAP.wiredHost6.ethg$o[0].channel datarate 1e+08bps
attr mutable ""
attr unit bps
par WiredAndWirelessHostsWithAP.wiredHost6.ethg$o[0].channel ber 0
attr mutable ""
par WiredAndWirelessHostsWithAP.wiredHost6.ethg$o[0].channel per 0
attr mutable ""
par WiredAndWirelessHostsWithAP.wiredHost6.ethg$o[0].channel length 10m
attr unit m
par WiredAndWirelessHostsWithAP.router6.ethg$o[5].channel typename "\"inet.node.ethernet.Eth100M\""
par WiredAndWirelessHostsWithAP.router6.ethg$o[5].channel disabled false
attr mutable ""
par WiredAndWirelessHostsWithAP.router6.ethg$o[5].channel delay 5e-08s
attr mutable ""
attr unit s
par WiredAndWirelessHostsWithAP.router6.ethg$o[5].channel datarate 1e+08bps
attr mutable ""
attr unit bps
par WiredAndWirelessHostsWithAP.router6.ethg$o[5].channel ber 0
attr mutable ""
par WiredAndWirelessHostsWithAP.router6.ethg$o[5].channel per 0
attr mutable ""
par WiredAndWirelessHostsWithAP.router6.ethg$o[5].channel length 10m
attr unit m
par WiredAndWirelessHostsWithAP.wiredHost7.ethg$o[0].channel typename "\"inet.node.ethernet.Eth100M\""
par WiredAndWirelessHostsWithAP.wiredHost7.ethg$o[0].channel disabled false
attr mutable ""
par WiredAndWirelessHostsWithAP.wiredHost7.ethg$o[0].channel delay 5e-08s
attr mutable ""
attr unit s
par WiredAndWirelessHostsWithAP.wiredHost7.ethg$o[0].channel datarate 1e+08bps
attr mutable ""
attr unit bps
par WiredAndWirelessHostsWithAP.wiredHost7.ethg$o[0].channel ber 0
attr mutable ""
par WiredAndWirelessHostsWithAP.wiredHost7.ethg$o[0].channel per 0
attr mutable ""
par WiredAndWirelessHostsWithAP.wiredHost7.ethg$o[0].channel length 10m
attr unit m
par WiredAndWirelessHostsWithAP.router6.ethg$o[6].channel typename "\"inet.node.ethernet.Eth100M\""
par WiredAndWirelessHostsWithAP.router6.ethg$o[6].channel disabled false
attr mutable ""
par WiredAndWirelessHostsWithAP.router6.ethg$o[6].channel delay 5e-08s
attr mutable ""
attr unit s
par WiredAndWirelessHostsWithAP.router6.ethg$o[6].channel datarate 1e+08bps
attr mutable ""
attr unit bps
par WiredAndWirelessHostsWithAP.router6.ethg$o[6].channel ber 0
attr mutable ""
par WiredAndWirelessHostsWithAP.router6.ethg$o[6].channel per 0
attr mutable ""
par WiredAndWirelessHostsWithAP.router6.ethg$o[6].channel length 10m
attr unit m
par WiredAndWirelessHostsWithAP.wiredHost8.ethg$o[0].channel typename "\"inet.node.ethernet.Eth100M\""
par WiredAndWirelessHostsWithAP.wiredHost8.ethg$o[0].channel disabled false
attr mutable ""
par WiredAndWirelessHostsWithAP.wiredHost8.ethg$o[0].channel delay 5e-08s
attr mutable ""
attr unit s
par WiredAndWirelessHostsWithAP.wiredHost8.ethg$o[0].channel datarate 1e+08bps
attr mutable ""
attr unit bps
par WiredAndWirelessHostsWithAP.wiredHost8.ethg$o[0].channel ber 0
attr mutable ""
par WiredAndWirelessHostsWithAP.wiredHost8.ethg$o[0].channel per 0
attr mutable ""
par WiredAndWirelessHostsWithAP.wiredHost8.ethg$o[0].channel length 10m
attr unit m
par WiredAndWirelessHostsWithAP.router6.ethg$o[7].channel typename "\"inet.node.ethernet.Eth100M\""
par WiredAndWirelessHostsWithAP.router6.ethg$o[7].channel disabled false
attr mutable ""
par WiredAndWirelessHostsWithAP.router6.ethg$o[7].channel delay 5e-08s
attr mutable ""
attr unit s
par WiredAndWirelessHostsWithAP.router6.ethg$o[7].channel datarate 1e+08bps
attr mutable ""
attr unit bps
par WiredAndWirelessHostsWithAP.router6.ethg$o[7].channel ber 0
attr mutable ""
par WiredAndWirelessHostsWithAP.router6.ethg$o[7].channel per 0
attr mutable ""
par WiredAndWirelessHostsWithAP.router6.ethg$o[7].channel length 10m
attr unit m
par WiredAndWirelessHostsWithAP.visualizer.sceneVisualizer typename "\"inet.visualizer.canvas.scene.SceneCanvasVisualizer\""
par WiredAndWirelessHostsWithAP.visualizer.sceneVisualizer visualizationTargetModule "\"^.^\""
par WiredAndWirelessHostsWithAP.visualizer.sceneVisualizer visualizationSubjectModule "\"^.^\""
par WiredAndWirelessHostsWithAP.visualizer.sceneVisualizer tags "\"\""
par WiredAndWirelessHostsWithAP.visualizer.sceneVisualizer physicalEnvironmentModule "\"physicalEnvironment\""
par WiredAndWirelessHostsWithAP.visualizer.sceneVisualizer networkNodeVisualizerModule "\"^.networkNodeVisualizer\""
par WiredAndWirelessHostsWithAP.visualizer.sceneVisualizer axisLength "nan m"
attr mutable ""
attr unit m
par WiredAndWirelessHostsWithAP.visualizer.sceneVisualizer animationSpeed 0
par WiredAndWirelessHostsWithAP.visualizer.sceneVisualizer sceneMinX "nan m"
attr unit m
par WiredAndWirelessHostsWithAP.visualizer.sceneVisualizer sceneMinY "nan m"
attr unit m
par WiredAndWirelessHostsWithAP.visualizer.sceneVisualizer sceneMinZ "nan m"
attr unit m
par WiredAndWirelessHostsWithAP.visualizer.sceneVisualizer sceneMaxX "nan m"
attr unit m
par WiredAndWirelessHostsWithAP.visualizer.sceneVisualizer sceneMaxY "nan m"
attr unit m
par WiredAndWirelessHostsWithAP.visualizer.sceneVisualizer sceneMaxZ "nan m"
attr unit m
par WiredAndWirelessHostsWithAP.visualizer.sceneVisualizer zIndex 0
par WiredAndWirelessHostsWithAP.visualizer.sceneVisualizer viewAngle "\"x right y down z out\""
attr mutable ""
par WiredAndWirelessHostsWithAP.visualizer.sceneVisualizer viewScale "\"1 1\""
attr mutable ""
par WiredAndWirelessHostsWithAP.visualizer.sceneVisualizer viewTranslation "\"0 0\""
attr mutable ""
par WiredAndWirelessHostsWithAP.visualizer.sceneVisualizer descriptionFigure "\"\""
par WiredAndWirelessHostsWithAP.visualizer.physicalEnvironmentVisualizer typename "\"inet.visualizer.canvas.environment.PhysicalEnvironmentCanvasVisualizer\""
par WiredAndWirelessHostsWithAP.visualizer.physicalEnvironmentVisualizer visualizationTargetModule "\"^.^\""
par WiredAndWirelessHostsWithAP.visualizer.physicalEnvironmentVisualizer visualizationSubjectModule "\"^.^\""
par WiredAndWirelessHostsWithAP.visualizer.physicalEnvironmentVisualizer tags "\"\""
par WiredAndWirelessHostsWithAP.visualizer.physicalEnvironmentVisualizer physicalEnvironmentModule "\"physicalEnvironment\""
par WiredAndWirelessHostsWithAP.visualizer.physicalEnvironmentVisualizer displayObjects true
par WiredAndWirelessHostsWithAP.visualizer.physicalEnvironmentVisualizer zIndex 0
par WiredAndWirelessHostsWithAP.visualizer.networkNodeVisualizer typename "\"inet.visualizer.canvas.scene.NetworkNodeCanvasVisualizer\""
par WiredAndWirelessHostsWithAP.visualizer.networkNodeVisualizer visualizationTargetModule "\"^.^\""
par WiredAndWirelessHostsWithAP.visualizer.networkNodeVisualizer visualizationSubjectModule "\"^.^\""
par WiredAndWirelessHostsWithAP.visualizer.networkNodeVisualizer tags "\"\""
par WiredAndWirelessHostsWithAP.visualizer.networkNodeVisualizer nodeFilter "\"*\""
attr mutable ""
par WiredAndWirelessHostsWithAP.visualizer.networkNodeVisualizer annotationSpacing 4
par WiredAndWirelessHostsWithAP.visualizer.networkNodeVisualizer placementPenalty 10
par WiredAndWirelessHostsWithAP.visualizer.networkNodeVisualizer zIndex 0
par WiredAndWirelessHostsWithAP.visualizer.networkConnectionVisualizer typename "\"inet.visualizer.canvas.scene.NetworkConnectionCanvasVisualizer\""
par WiredAndWirelessHostsWithAP.visualizer.networkConnectionVisualizer visualizationTargetModule "\"^.^\""
par WiredAndWirelessHostsWithAP.visualizer.networkConnectionVisualizer visualizationSubjectModule "\"^.^\""
par WiredAndWirelessHostsWithAP.visualizer.networkConnectionVisualizer tags "\"\""
par WiredAndWirelessHostsWithAP.visualizer.networkConnectionVisualizer displayNetworkConnections true
par WiredAndWirelessHostsWithAP.visualizer.networkConnectionVisualizer nodeFilter "\"\""
attr mutable ""
par WiredAndWirelessHostsWithAP.visualizer.networkConnectionVisualizer lineColor "\"black\""
par WiredAndWirelessHostsWithAP.visualizer.networkConnectionVisualizer lineStyle "\"solid\""
par WiredAndWirelessHostsWithAP.visualizer.networkConnectionVisualizer lineWidth 1
par WiredAndWirelessHostsWithAP.visualizer.networkConnectionVisualizer zIndex 0
par WiredAndWirelessHostsWithAP.visualizer.mobilityVisualizer typename "\"inet.visualizer.canvas.mobility.MobilityCanvasVisualizer\""
par WiredAndWirelessHostsWithAP.visualizer.mobilityVisualizer visualizationTargetModule "\"^.^\""
par WiredAndWirelessHostsWithAP.visualizer.mobilityVisualizer visualizationSubjectModule "\"^.^\""
par WiredAndWirelessHostsWithAP.visualizer.mobilityVisualizer tags "\"\""
par WiredAndWirelessHostsWithAP.visualizer.mobilityVisualizer networkNodeVisualizerModule "\"^.networkNodeVisualizer\""
par WiredAndWirelessHostsWithAP.visualizer.mobilityVisualizer displayMobility true
par WiredAndWirelessHostsWithAP.visualizer.mobilityVisualizer animationSpeed 0
par WiredAndWirelessHostsWithAP.visualizer.mobilityVisualizer moduleFilter "\"**.mobility\""
attr mutable ""
par WiredAndWirelessHostsWithAP.visualizer.mobilityVisualizer displayPositions false
par WiredAndWirelessHostsWithAP.visualizer.mobilityVisualizer positionCircleRadius 4
par WiredAndWirelessHostsWithAP.visualizer.mobilityVisualizer positionCircleLineWidth 1
par WiredAndWirelessHostsWithAP.visualizer.mobilityVisualizer positionCircleLineColor "\"dark\""
par WiredAndWirelessHostsWithAP.visualizer.mobilityVisualizer positionCircleFillColor "\"dark\""
par WiredAndWirelessHostsWithAP.visualizer.mobilityVisualizer displayOrientations false
par WiredAndWirelessHostsWithAP.visualizer.mobilityVisualizer orientationPieRadius 32
par WiredAndWirelessHostsWithAP.visualizer.mobilityVisualizer orientationPieSize 0.2
par WiredAndWirelessHostsWithAP.visualizer.mobilityVisualizer orientationPieOpacity 0.25
par WiredAndWirelessHostsWithAP.visualizer.mobilityVisualizer orientationLineColor "\"black\""
par WiredAndWirelessHostsWithAP.visualizer.mobilityVisualizer orientationLineStyle "\"solid\""
par WiredAndWirelessHostsWithAP.visualizer.mobilityVisualizer orientationLineWidth 1
par WiredAndWirelessHostsWithAP.visualizer.mobilityVisualizer orientationFillColor "\"blue\""
par WiredAndWirelessHostsWithAP.visualizer.mobilityVisualizer displayVelocities false
par WiredAndWirelessHostsWithAP.visualizer.mobilityVisualizer velocityArrowScale 1
par WiredAndWirelessHostsWithAP.visualizer.mobilityVisualizer velocityLineColor "\"black\""
par WiredAndWirelessHostsWithAP.visualizer.mobilityVisualizer velocityLineStyle "\"solid\""
par WiredAndWirelessHostsWithAP.visualizer.mobilityVisualizer velocityLineWidth 1
par WiredAndWirelessHostsWithAP.visualizer.mobilityVisualizer displayMovementTrails false
par WiredAndWirelessHostsWithAP.visualizer.mobilityVisualizer movementTrailLineColor "\"dark\""
par WiredAndWirelessHostsWithAP.visualizer.mobilityVisualizer movementTrailLineStyle "\"solid\""
par WiredAndWirelessHostsWithAP.visualizer.mobilityVisualizer movementTrailLineWidth 1
par WiredAndWirelessHostsWithAP.visualizer.mobilityVisualizer trailLength 100
par WiredAndWirelessHostsWithAP.visualizer.mobilityVisualizer zIndex 0
par WiredAndWirelessHostsWithAP.visualizer.statisticVisualizer typename "\"inet.visualizer.canvas.common.StatisticCanvasVisualizer\""
par WiredAndWirelessHostsWithAP.visualizer.statisticVisualizer visualizationTargetModule "\"^.^\""
par WiredAndWirelessHostsWithAP.visualizer.statisticVisualizer visualizationSubjectModule "\"^.^\""
par WiredAndWirelessHostsWithAP.visualizer.statisticVisualizer tags "\"\""
par WiredAndWirelessHostsWithAP.visualizer.statisticVisualizer networkNodeVisualizerModule "\"^.networkNodeVisualizer\""
par WiredAndWirelessHostsWithAP.visualizer.statisticVisualizer displayStatistics true
par WiredAndWirelessHostsWithAP.visualizer.statisticVisualizer signalName "\"\""
par WiredAndWirelessHostsWithAP.visualizer.statisticVisualizer statisticName "\"\""
par WiredAndWirelessHostsWithAP.visualizer.statisticVisualizer statisticUnit "\"\""
par WiredAndWirelessHostsWithAP.visualizer.statisticVisualizer statisticExpression "\"\""
par WiredAndWirelessHostsWithAP.visualizer.statisticVisualizer sourceFilter "\"**\""
attr mutable ""
par WiredAndWirelessHostsWithAP.visualizer.statisticVisualizer format "\"%n: %v %u\""
attr mutable ""
par WiredAndWirelessHostsWithAP.visualizer.statisticVisualizer unit "\"\""
par WiredAndWirelessHostsWithAP.visualizer.statisticVisualizer font "\"<default>\""
par WiredAndWirelessHostsWithAP.visualizer.statisticVisualizer textColor "\"black\""
par WiredAndWirelessHostsWithAP.visualizer.statisticVisualizer backgroundColor "\"white\""
par WiredAndWirelessHostsWithAP.visualizer.statisticVisualizer opacity 1
par WiredAndWirelessHostsWithAP.visualizer.statisticVisualizer placementHint "\"top\""
par WiredAndWirelessHostsWithAP.visualizer.statisticVisualizer placementPriority 0
par WiredAndWirelessHostsWithAP.visualizer.statisticVisualizer zIndex 10
par WiredAndWirelessHostsWithAP.visualizer.statisticVisualizer propertyName "\"\""
par WiredAndWirelessHostsWithAP.visualizer.statisticVisualizer propertyIndex "\"\""
par WiredAndWirelessHostsWithAP.visualizer.infoVisualizer typename "\"inet.visualizer.canvas.common.InfoCanvasVisualizer\""
par WiredAndWirelessHostsWithAP.visualizer.infoVisualizer visualizationTargetModule "\"^.^\""
par WiredAndWirelessHostsWithAP.visualizer.infoVisualizer visualizationSubjectModule "\"^.^\""
par WiredAndWirelessHostsWithAP.visualizer.infoVisualizer tags "\"\""
par WiredAndWirelessHostsWithAP.visualizer.infoVisualizer networkNodeVisualizerModule "\"^.networkNodeVisualizer\""
par WiredAndWirelessHostsWithAP.visualizer.infoVisualizer displayInfos true
par WiredAndWirelessHostsWithAP.visualizer.infoVisualizer modules "\"\""
attr mutable ""
par WiredAndWirelessHostsWithAP.visualizer.infoVisualizer format "\"%t\""
attr mutable ""
par WiredAndWirelessHostsWithAP.visualizer.infoVisualizer font "\"<default>\""
par WiredAndWirelessHostsWithAP.visualizer.infoVisualizer textColor "\"black\""
par WiredAndWirelessHostsWithAP.visualizer.infoVisualizer backgroundColor "\"white\""
par WiredAndWirelessHostsWithAP.visualizer.infoVisualizer opacity 1
par WiredAndWirelessHostsWithAP.visualizer.infoVisualizer placementHint "\"top\""
par WiredAndWirelessHostsWithAP.visualizer.infoVisualizer placementPriority 0
par WiredAndWirelessHostsWithAP.visualizer.infoVisualizer zIndex 10
par WiredAndWirelessHostsWithAP.visualizer.energyStorageVisualizer typename "\"inet.visualizer.canvas.power.EnergyStorageCanvasVisualizer\""
par WiredAndWirelessHostsWithAP.visualizer.energyStorageVisualizer visualizationTargetModule "\"^.^\""
par WiredAndWirelessHostsWithAP.visualizer.energyStorageVisualizer visualizationSubjectModule "\"^.^\""
par WiredAndWirelessHostsWithAP.visualizer.energyStorageVisualizer tags "\"\""
par WiredAndWirelessHostsWithAP.visualizer.energyStorageVisualizer networkNodeVisualizerModule "\"^.networkNodeVisualizer\""
par WiredAndWirelessHostsWithAP.visualizer.energyStorageVisualizer displayEnergyStorages false
par WiredAndWirelessHostsWithAP.visualizer.energyStorageVisualizer energyStorageFilter "\"**\""
par WiredAndWirelessHostsWithAP.visualizer.energyStorageVisualizer color "\"green\""
par WiredAndWirelessHostsWithAP.visualizer.energyStorageVisualizer width 8
par WiredAndWirelessHostsWithAP.visualizer.energyStorageVisualizer height 24
par WiredAndWirelessHostsWithAP.visualizer.energyStorageVisualizer spacing 2
par WiredAndWirelessHostsWithAP.visualizer.energyStorageVisualizer placementHint "\"right\""
par WiredAndWirelessHostsWithAP.visualizer.energyStorageVisualizer placementPriority 0
par WiredAndWirelessHostsWithAP.visualizer.energyStorageVisualizer zIndex 10
par WiredAndWirelessHostsWithAP.visualizer.mediumVisualizer typename "\"inet.visualizer.canvas.physicallayer.MediumCanvasVisualizer\""
par WiredAndWirelessHostsWithAP.visualizer.mediumVisualizer visualizationTargetModule "\"^.^\""
par WiredAndWirelessHostsWithAP.visualizer.mediumVisualizer visualizationSubjectModule "\"^.^\""
par WiredAndWirelessHostsWithAP.visualizer.mediumVisualizer tags "\"\""
par WiredAndWirelessHostsWithAP.visualizer.mediumVisualizer mediumModule "\"radioMedium\""
par WiredAndWirelessHostsWithAP.visualizer.mediumVisualizer networkNodeVisualizerModule "\"^.networkNodeVisualizer\""
par WiredAndWirelessHostsWithAP.visualizer.mediumVisualizer nodeFilter "\"*\""
attr mutable ""
par WiredAndWirelessHostsWithAP.visualizer.mediumVisualizer interfaceFilter "\"*\""
attr mutable ""
par WiredAndWirelessHostsWithAP.visualizer.mediumVisualizer packetFilter "(omnetpp::cValueHolder)holder: \"*\""
attr mutable ""
par WiredAndWirelessHostsWithAP.visualizer.mediumVisualizer displaySignals true
par WiredAndWirelessHostsWithAP.visualizer.mediumVisualizer signalColor "\"dark\""
par WiredAndWirelessHostsWithAP.visualizer.mediumVisualizer signalPropagationAnimationSpeed "nan "
attr mutable ""
par WiredAndWirelessHostsWithAP.visualizer.mediumVisualizer signalPropagationAnimationTime 1s
attr unit s
par WiredAndWirelessHostsWithAP.visualizer.mediumVisualizer signalPropagationAdditionalTime 0s
attr unit s
par WiredAndWirelessHostsWithAP.visualizer.mediumVisualizer signalTransmissionAnimationSpeed "nan "
attr mutable ""
par WiredAndWirelessHostsWithAP.visualizer.mediumVisualizer signalTransmissionAnimationTime 1s
attr unit s
par WiredAndWirelessHostsWithAP.visualizer.mediumVisualizer signalAnimationSpeedChangeTimeMode "\"realTime\""
attr enum realTime,animationTime,simulationTime
par WiredAndWirelessHostsWithAP.visualizer.mediumVisualizer signalAnimationSpeedChangeTime 1s
attr unit s
par WiredAndWirelessHostsWithAP.visualizer.mediumVisualizer displaySignalDepartures false
par WiredAndWirelessHostsWithAP.visualizer.mediumVisualizer signalDepartureImage "\"misc/signal_departure.png\""
par WiredAndWirelessHostsWithAP.visualizer.mediumVisualizer signalDeparturePlacementHint "\"topCenter\""
par WiredAndWirelessHostsWithAP.visualizer.mediumVisualizer signalDeparturePlacementPriority 1
par WiredAndWirelessHostsWithAP.visualizer.mediumVisualizer displaySignalArrivals false
par WiredAndWirelessHostsWithAP.visualizer.mediumVisualizer signalArrivalImage "\"misc/signal_arrival.png\""
par WiredAndWirelessHostsWithAP.visualizer.mediumVisualizer signalArrivalPlacementHint "\"topCenter\""
par WiredAndWirelessHostsWithAP.visualizer.mediumVisualizer signalArrivalPlacementPriority -1
par WiredAndWirelessHostsWithAP.visualizer.mediumVisualizer displayCommunicationRanges false
par WiredAndWirelessHostsWithAP.visualizer.mediumVisualizer communicationRangeLineColor "\"blue\""
par WiredAndWirelessHostsWithAP.visualizer.mediumVisualizer communicationRangeLineStyle "\"solid\""
par WiredAndWirelessHostsWithAP.visualizer.mediumVisualizer communicationRangeLineWidth 1
par WiredAndWirelessHostsWithAP.visualizer.mediumVisualizer displayInterferenceRanges false
par WiredAndWirelessHostsWithAP.visualizer.mediumVisualizer interferenceRangeLineColor "\"gray\""
par WiredAndWirelessHostsWithAP.visualizer.mediumVisualizer interferenceRangeLineStyle "\"solid\""
par WiredAndWirelessHostsWithAP.visualizer.mediumVisualizer interferenceRangeLineWidth 1
par WiredAndWirelessHostsWithAP.visualizer.mediumVisualizer autoPowerAxis true
par WiredAndWirelessHostsWithAP.visualizer.mediumVisualizer signalMinPower "inf dBmW"
attr unit dBmW
par WiredAndWirelessHostsWithAP.visualizer.mediumVisualizer signalMaxPower 0dBmW
attr unit dBmW
par WiredAndWirelessHostsWithAP.visualizer.mediumVisualizer signalMinPowerDensity "inf dBmWpMHz"
attr unit dBmWpMHz
par WiredAndWirelessHostsWithAP.visualizer.mediumVisualizer signalMaxPowerDensity "-inf dBmWpMHz"
attr unit dBmWpMHz
par WiredAndWirelessHostsWithAP.visualizer.mediumVisualizer autoTimeAxis true
par WiredAndWirelessHostsWithAP.visualizer.mediumVisualizer signalMinTime 0s
attr unit s
par WiredAndWirelessHostsWithAP.visualizer.mediumVisualizer signalMaxTime 0s
attr unit s
par WiredAndWirelessHostsWithAP.visualizer.mediumVisualizer autoFrequencyAxis true
par WiredAndWirelessHostsWithAP.visualizer.mediumVisualizer signalMinFrequency "inf Hz"
attr unit Hz
par WiredAndWirelessHostsWithAP.visualizer.mediumVisualizer signalMaxFrequency "-inf Hz"
attr unit Hz
par WiredAndWirelessHostsWithAP.visualizer.mediumVisualizer displayMainPowerDensityMap false
par WiredAndWirelessHostsWithAP.visualizer.mediumVisualizer mainPowerDensityMapPixmapDensity 1
par WiredAndWirelessHostsWithAP.visualizer.mediumVisualizer mainPowerDensityMapMinX 0
par WiredAndWirelessHostsWithAP.visualizer.mediumVisualizer mainPowerDensityMapMaxX "nan "
par WiredAndWirelessHostsWithAP.visualizer.mediumVisualizer mainPowerDensityMapMinY 0
par WiredAndWirelessHostsWithAP.visualizer.mediumVisualizer mainPowerDensityMapMaxY "nan "
par WiredAndWirelessHostsWithAP.visualizer.mediumVisualizer mainPowerDensityMapZ 0
par WiredAndWirelessHostsWithAP.visualizer.mediumVisualizer mainPowerDensityMapFigureXTickCount 3
par WiredAndWirelessHostsWithAP.visualizer.mediumVisualizer mainPowerDensityMapFigureYTickCount 3
par WiredAndWirelessHostsWithAP.visualizer.mediumVisualizer displayPowerDensityMaps false
par WiredAndWirelessHostsWithAP.visualizer.mediumVisualizer powerDensityMapMode "\"auto\""
attr enum total,signal,auto
par WiredAndWirelessHostsWithAP.visualizer.mediumVisualizer powerDensityMapPixelMode "\"mean\""
attr enum sample,partition,mean
par WiredAndWirelessHostsWithAP.visualizer.mediumVisualizer powerDensityMapApproximationSize 10
par WiredAndWirelessHostsWithAP.visualizer.mediumVisualizer powerDensityMapCenterFrequency "nan Hz"
attr mutable ""
attr unit Hz
par WiredAndWirelessHostsWithAP.visualizer.mediumVisualizer powerDensityMapBandwidth 0Hz
attr mutable ""
attr unit Hz
par WiredAndWirelessHostsWithAP.visualizer.mediumVisualizer powerDensityMapFigureWidth 200
par WiredAndWirelessHostsWithAP.visualizer.mediumVisualizer powerDensityMapFigureHeight 120
par WiredAndWirelessHostsWithAP.visualizer.mediumVisualizer powerDensityMapPixmapWidth 200
par WiredAndWirelessHostsWithAP.visualizer.mediumVisualizer powerDensityMapPixmapHeight 120
par WiredAndWirelessHostsWithAP.visualizer.mediumVisualizer powerDensityMapZ 0
par WiredAndWirelessHostsWithAP.visualizer.mediumVisualizer powerDensityMapFigureXTickCount 3
par WiredAndWirelessHostsWithAP.visualizer.mediumVisualizer powerDensityMapFigureYTickCount 3
par WiredAndWirelessHostsWithAP.visualizer.mediumVisualizer displaySpectrums false
par WiredAndWirelessHostsWithAP.visualizer.mediumVisualizer spectrumMode "\"auto\""
attr enum total,signal,auto
par WiredAndWirelessHostsWithAP.visualizer.mediumVisualizer spectrumFigureWidth 200
par WiredAndWirelessHostsWithAP.visualizer.mediumVisualizer spectrumFigureHeight 120
par WiredAndWirelessHostsWithAP.visualizer.mediumVisualizer spectrumFigureXTickCount 3
par WiredAndWirelessHostsWithAP.visualizer.mediumVisualizer spectrumFigureYTickCount 5
par WiredAndWirelessHostsWithAP.visualizer.mediumVisualizer spectrumFigureInterpolationSize 5
par WiredAndWirelessHostsWithAP.visualizer.mediumVisualizer spectrumPlacementHint "\"bottomCenter\""
par WiredAndWirelessHostsWithAP.visualizer.mediumVisualizer spectrumPlacementPriority -1
par WiredAndWirelessHostsWithAP.visualizer.mediumVisualizer displaySpectrograms false
par WiredAndWirelessHostsWithAP.visualizer.mediumVisualizer spectrogramMode "\"auto\""
attr enum total,signal,auto
par WiredAndWirelessHostsWithAP.visualizer.mediumVisualizer spectrogramPixelMode "\"mean\""
attr enum sample,partition,mean
par WiredAndWirelessHostsWithAP.visualizer.mediumVisualizer spectrogramFigureWidth 200
par WiredAndWirelessHostsWithAP.visualizer.mediumVisualizer spectrogramFigureHeight 120
par WiredAndWirelessHostsWithAP.visualizer.mediumVisualizer spectrogramPixmapWidth 200
par WiredAndWirelessHostsWithAP.visualizer.mediumVisualizer spectrogramPixmapHeight 120
par WiredAndWirelessHostsWithAP.visualizer.mediumVisualizer spectrogramFigureXTickCount 3
par WiredAndWirelessHostsWithAP.visualizer.mediumVisualizer spectrogramFigureYTickCount 5
par WiredAndWirelessHostsWithAP.visualizer.mediumVisualizer spectrogramPlacementHint "\"bottomCenter\""
par WiredAndWirelessHostsWithAP.visualizer.mediumVisualizer spectrogramPlacementPriority -1
par WiredAndWirelessHostsWithAP.visualizer.mediumVisualizer zIndex 0
par WiredAndWirelessHostsWithAP.visualizer.mediumVisualizer signalShape "\"ring\""
attr enum ring,sphere
par WiredAndWirelessHostsWithAP.visualizer.mediumVisualizer signalOpacity 0.5
par WiredAndWirelessHostsWithAP.visualizer.mediumVisualizer signalRingCount 20
par WiredAndWirelessHostsWithAP.visualizer.mediumVisualizer signalRingSize 50m
attr unit m
par WiredAndWirelessHostsWithAP.visualizer.mediumVisualizer signalFadingDistance 50m
attr unit m
par WiredAndWirelessHostsWithAP.visualizer.mediumVisualizer signalFadingFactor 1.2
par WiredAndWirelessHostsWithAP.visualizer.mediumVisualizer signalWaveCount 20
par WiredAndWirelessHostsWithAP.visualizer.mediumVisualizer signalWaveLength 50m
attr unit m
par WiredAndWirelessHostsWithAP.visualizer.mediumVisualizer signalWaveWidth 10m
attr unit m
par WiredAndWirelessHostsWithAP.visualizer.mediumVisualizer signalWaveFadingAnimationSpeedFactor 1
par WiredAndWirelessHostsWithAP.visualizer.mediumVisualizer displayCommunicationHeat false
par WiredAndWirelessHostsWithAP.visualizer.obstacleLossVisualizer typename "\"inet.visualizer.canvas.physicallayer.TracingObstacleLossCanvasVisualizer\""
par WiredAndWirelessHostsWithAP.visualizer.obstacleLossVisualizer visualizationTargetModule "\"^.^\""
par WiredAndWirelessHostsWithAP.visualizer.obstacleLossVisualizer visualizationSubjectModule "\"^.^\""
par WiredAndWirelessHostsWithAP.visualizer.obstacleLossVisualizer tags "\"\""
par WiredAndWirelessHostsWithAP.visualizer.obstacleLossVisualizer displayIntersections false
par WiredAndWirelessHostsWithAP.visualizer.obstacleLossVisualizer intersectionLineColor "\"red\""
par WiredAndWirelessHostsWithAP.visualizer.obstacleLossVisualizer intersectionLineStyle "\"solid\""
par WiredAndWirelessHostsWithAP.visualizer.obstacleLossVisualizer intersectionLineWidth 1
par WiredAndWirelessHostsWithAP.visualizer.obstacleLossVisualizer displayFaceNormalVectors false
par WiredAndWirelessHostsWithAP.visualizer.obstacleLossVisualizer faceNormalLineColor "\"grey\""
par WiredAndWirelessHostsWithAP.visualizer.obstacleLossVisualizer faceNormalLineStyle "\"solid\""
par WiredAndWirelessHostsWithAP.visualizer.obstacleLossVisualizer faceNormalLineWidth 1
par WiredAndWirelessHostsWithAP.visualizer.obstacleLossVisualizer fadeOutMode "\"realTime\""
attr enum realTime,animationTime,simulationTime
par WiredAndWirelessHostsWithAP.visualizer.obstacleLossVisualizer fadeOutTime 1s
attr unit s
par WiredAndWirelessHostsWithAP.visualizer.obstacleLossVisualizer fadeOutAnimationSpeed 0
par WiredAndWirelessHostsWithAP.visualizer.obstacleLossVisualizer zIndex 0
par WiredAndWirelessHostsWithAP.visualizer.packetDropVisualizer typename "\"inet.visualizer.canvas.common.PacketDropCanvasVisualizer\""
par WiredAndWirelessHostsWithAP.visualizer.packetDropVisualizer visualizationTargetModule "\"^.^\""
par WiredAndWirelessHostsWithAP.visualizer.packetDropVisualizer visualizationSubjectModule "\"^.^\""
par WiredAndWirelessHostsWithAP.visualizer.packetDropVisualizer tags "\"\""
par WiredAndWirelessHostsWithAP.visualizer.packetDropVisualizer displayPacketDrops false
par WiredAndWirelessHostsWithAP.visualizer.packetDropVisualizer nodeFilter "\"*\""
attr mutable ""
par WiredAndWirelessHostsWithAP.visualizer.packetDropVisualizer interfaceFilter "\"*\""
attr mutable ""
par WiredAndWirelessHostsWithAP.visualizer.packetDropVisualizer packetFilter "(omnetpp::cValueHolder)holder: \"*\""
attr mutable ""
par WiredAndWirelessHostsWithAP.visualizer.packetDropVisualizer detailsFilter "\"*\""
attr mutable ""
par WiredAndWirelessHostsWithAP.visualizer.packetDropVisualizer icon "\"msg/packet_s\""
par WiredAndWirelessHostsWithAP.visualizer.packetDropVisualizer iconTintAmount 1
par WiredAndWirelessHostsWithAP.visualizer.packetDropVisualizer iconTintColor "\"dark\""
par WiredAndWirelessHostsWithAP.visualizer.packetDropVisualizer labelFormat "\"%n\""
attr mutable ""
par WiredAndWirelessHostsWithAP.visualizer.packetDropVisualizer labelFont "\"<default>\""
par WiredAndWirelessHostsWithAP.visualizer.packetDropVisualizer labelColor "\"black\""
par WiredAndWirelessHostsWithAP.visualizer.packetDropVisualizer fadeOutMode "\"realTime\""
attr enum realTime,animationTime,simulationTime
par WiredAndWirelessHostsWithAP.visualizer.packetDropVisualizer fadeOutTime 1s
attr unit s
par WiredAndWirelessHostsWithAP.visualizer.packetDropVisualizer fadeOutAnimationSpeed 0
par WiredAndWirelessHostsWithAP.visualizer.packetDropVisualizer zIndex 10
par WiredAndWirelessHostsWithAP.visualizer.packetDropVisualizer dx 32
par WiredAndWirelessHostsWithAP.visualizer.packetDropVisualizer dy 64
par WiredAndWirelessHostsWithAP.visualizer.packetFlowVisualizer typename "\"inet.visualizer.canvas.flow.PacketFlowCanvasVisualizer\""
par WiredAndWirelessHostsWithAP.visualizer.packetFlowVisualizer visualizationTargetModule "\"^.^\""
par WiredAndWirelessHostsWithAP.visualizer.packetFlowVisualizer visualizationSubjectModule "\"^.^\""
par WiredAndWirelessHostsWithAP.visualizer.packetFlowVisualizer tags "\"\""
par WiredAndWirelessHostsWithAP.visualizer.packetFlowVisualizer displayRoutes false
par WiredAndWirelessHostsWithAP.visualizer.packetFlowVisualizer startPathSignal "\"packetFlowStarted\""
par WiredAndWirelessHostsWithAP.visualizer.packetFlowVisualizer extendPathSignal "\"packetReceivedFromLower\""
par WiredAndWirelessHostsWithAP.visualizer.packetFlowVisualizer endPathSignal "\"packetFlowEnded\""
par WiredAndWirelessHostsWithAP.visualizer.packetFlowVisualizer nodeFilter "\"*\""
attr mutable ""
par WiredAndWirelessHostsWithAP.visualizer.packetFlowVisualizer packetFilter "(omnetpp::cValueHolder)holder: \"*\""
attr mutable ""
par WiredAndWirelessHostsWithAP.visualizer.packetFlowVisualizer lineColor "\"dark\""
par WiredAndWirelessHostsWithAP.visualizer.packetFlowVisualizer lineStyle "\"dashed\""
par WiredAndWirelessHostsWithAP.visualizer.packetFlowVisualizer lineWidth 3
par WiredAndWirelessHostsWithAP.visualizer.packetFlowVisualizer lineSmooth false
par WiredAndWirelessHostsWithAP.visualizer.packetFlowVisualizer lineShift 16
par WiredAndWirelessHostsWithAP.visualizer.packetFlowVisualizer lineShiftMode "\"normal\""
par WiredAndWirelessHostsWithAP.visualizer.packetFlowVisualizer lineContactSpacing 3
par WiredAndWirelessHostsWithAP.visualizer.packetFlowVisualizer lineContactMode "\"rectangular\""
attr enum circular,rectangular
par WiredAndWirelessHostsWithAP.visualizer.packetFlowVisualizer labelFormat "\"%L %p pk (%l)\""
par WiredAndWirelessHostsWithAP.visualizer.packetFlowVisualizer labelFont "\"<default>, 8px\""
par WiredAndWirelessHostsWithAP.visualizer.packetFlowVisualizer labelColor "\"\""
par WiredAndWirelessHostsWithAP.visualizer.packetFlowVisualizer fadeOutMode "\"realTime\""
attr enum realTime,animationTime,simulationTime
par WiredAndWirelessHostsWithAP.visualizer.packetFlowVisualizer fadeOutTime 0s
attr unit s
par WiredAndWirelessHostsWithAP.visualizer.packetFlowVisualizer fadeOutAnimationSpeed 0
par WiredAndWirelessHostsWithAP.visualizer.packetFlowVisualizer zIndex 4
par WiredAndWirelessHostsWithAP.visualizer.queueVisualizer typename "\"inet.visualizer.canvas.common.QueueCanvasVisualizer\""
par WiredAndWirelessHostsWithAP.visualizer.queueVisualizer visualizationTargetModule "\"^.^\""
par WiredAndWirelessHostsWithAP.visualizer.queueVisualizer visualizationSubjectModule "\"^.^\""
par WiredAndWirelessHostsWithAP.visualizer.queueVisualizer tags "\"\""
par WiredAndWirelessHostsWithAP.visualizer.queueVisualizer networkNodeVisualizerModule "\"^.networkNodeVisualizer\""
par WiredAndWirelessHostsWithAP.visualizer.queueVisualizer displayQueues false
par WiredAndWirelessHostsWithAP.visualizer.queueVisualizer queueFilter "\"**\""
par WiredAndWirelessHostsWithAP.visualizer.queueVisualizer color "\"blue\""
par WiredAndWirelessHostsWithAP.visualizer.queueVisualizer width 8
par WiredAndWirelessHostsWithAP.visualizer.queueVisualizer height 24
par WiredAndWirelessHostsWithAP.visualizer.queueVisualizer spacing 2
par WiredAndWirelessHostsWithAP.visualizer.queueVisualizer placementHint "\"right\""
par WiredAndWirelessHostsWithAP.visualizer.queueVisualizer placementPriority 0
par WiredAndWirelessHostsWithAP.visualizer.queueVisualizer zIndex 10
par WiredAndWirelessHostsWithAP.visualizer.gateScheduleVisualizer typename "\"inet.visualizer.canvas.common.GateScheduleCanvasVisualizer\""
par WiredAndWirelessHostsWithAP.visualizer.gateScheduleVisualizer visualizationTargetModule "\"^.^\""
par WiredAndWirelessHostsWithAP.visualizer.gateScheduleVisualizer visualizationSubjectModule "\"^.^\""
par WiredAndWirelessHostsWithAP.visualizer.gateScheduleVisualizer tags "\"\""
par WiredAndWirelessHostsWithAP.visualizer.gateScheduleVisualizer networkNodeVisualizerModule "\"^.networkNodeVisualizer\""
par WiredAndWirelessHostsWithAP.visualizer.gateScheduleVisualizer displayGateSchedules false
par WiredAndWirelessHostsWithAP.visualizer.gateScheduleVisualizer labelFormat "\"%i %D\""
par WiredAndWirelessHostsWithAP.visualizer.gateScheduleVisualizer gateFilter "\"**\""
par WiredAndWirelessHostsWithAP.visualizer.gateScheduleVisualizer width 100
par WiredAndWirelessHostsWithAP.visualizer.gateScheduleVisualizer height 8
par WiredAndWirelessHostsWithAP.visualizer.gateScheduleVisualizer spacing 2
par WiredAndWirelessHostsWithAP.visualizer.gateScheduleVisualizer placementHint "\"right\""
par WiredAndWirelessHostsWithAP.visualizer.gateScheduleVisualizer placementPriority 0
par WiredAndWirelessHostsWithAP.visualizer.gateScheduleVisualizer displayDuration 0s
attr mutable ""
attr unit s
par WiredAndWirelessHostsWithAP.visualizer.gateScheduleVisualizer currentTimePosition 50
par WiredAndWirelessHostsWithAP.visualizer.gateScheduleVisualizer zIndex 10
par WiredAndWirelessHostsWithAP.visualizer.radioVisualizer typename "\"inet.visualizer.canvas.physicallayer.RadioCanvasVisualizer\""
par WiredAndWirelessHostsWithAP.visualizer.radioVisualizer visualizationTargetModule "\"^.^\""
par WiredAndWirelessHostsWithAP.visualizer.radioVisualizer visualizationSubjectModule "\"^.^\""
par WiredAndWirelessHostsWithAP.visualizer.radioVisualizer tags "\"\""
par WiredAndWirelessHostsWithAP.visualizer.radioVisualizer networkNodeVisualizerModule "\"^.networkNodeVisualizer\""
par WiredAndWirelessHostsWithAP.visualizer.radioVisualizer displayRadios false
par WiredAndWirelessHostsWithAP.visualizer.radioVisualizer displayRadioMode true
par WiredAndWirelessHostsWithAP.visualizer.radioVisualizer displayReceptionState true
par WiredAndWirelessHostsWithAP.visualizer.radioVisualizer displayTransmissionState true
par WiredAndWirelessHostsWithAP.visualizer.radioVisualizer displayAntennaLobes false
par WiredAndWirelessHostsWithAP.visualizer.radioVisualizer radioFilter "\"**\""
attr mutable ""
par WiredAndWirelessHostsWithAP.visualizer.radioVisualizer radioModeImages "\"block/process_vs block/timer_vs block/wrx_vs block/wtx_vs block/wrxtx_vs block/cogwheel_vs\""
par WiredAndWirelessHostsWithAP.visualizer.radioVisualizer receptionStateImages "\"- - misc/receiving misc/receiving\""
par WiredAndWirelessHostsWithAP.visualizer.radioVisualizer transmissionStateImages "\"- - misc/transmitting\""
par WiredAndWirelessHostsWithAP.visualizer.radioVisualizer width 16
par WiredAndWirelessHostsWithAP.visualizer.radioVisualizer height 16
par WiredAndWirelessHostsWithAP.visualizer.radioVisualizer placementHint "\"bottomRight\""
par WiredAndWirelessHostsWithAP.visualizer.radioVisualizer placementPriority 0
par WiredAndWirelessHostsWithAP.visualizer.radioVisualizer antennaLobeNormalize false
par WiredAndWirelessHostsWithAP.visualizer.radioVisualizer antennaLobeRelativeLabels false
par WiredAndWirelessHostsWithAP.visualizer.radioVisualizer antennaLobePlaneGlobal true
par WiredAndWirelessHostsWithAP.visualizer.radioVisualizer antennaLobePlane "\"view\""
attr enum view,xy,xz,yz
par WiredAndWirelessHostsWithAP.visualizer.radioVisualizer antennaLobeMode "\"logarithmic\""
attr enum logarithmic,linear
par WiredAndWirelessHostsWithAP.visualizer.radioVisualizer antennaLobeLogarithmicBase 10
par WiredAndWirelessHostsWithAP.visualizer.radioVisualizer antennaLobeLogarithmicScale 100
par WiredAndWirelessHostsWithAP.visualizer.radioVisualizer antennaLobeRadius 100
par WiredAndWirelessHostsWithAP.visualizer.radioVisualizer antennaLobeStep 10deg
attr unit deg
par WiredAndWirelessHostsWithAP.visualizer.radioVisualizer antennaLobeOpacity 0.25
par WiredAndWirelessHostsWithAP.visualizer.radioVisualizer antennaLobeLineSmooth true
par WiredAndWirelessHostsWithAP.visualizer.radioVisualizer antennaLobeLineColor "\"black\""
par WiredAndWirelessHostsWithAP.visualizer.radioVisualizer antennaLobeLineStyle "\"solid\""
par WiredAndWirelessHostsWithAP.visualizer.radioVisualizer antennaLobeLineWidth 1
par WiredAndWirelessHostsWithAP.visualizer.radioVisualizer antennaLobeFillColor "\"white\""
par WiredAndWirelessHostsWithAP.visualizer.radioVisualizer zIndex 10
par WiredAndWirelessHostsWithAP.visualizer.physicalLinkVisualizer typename "\"inet.visualizer.canvas.physicallayer.PhysicalLinkCanvasVisualizer\""
par WiredAndWirelessHostsWithAP.visualizer.physicalLinkVisualizer visualizationTargetModule "\"^.^\""
par WiredAndWirelessHostsWithAP.visualizer.physicalLinkVisualizer visualizationSubjectModule "\"^.^\""
par WiredAndWirelessHostsWithAP.visualizer.physicalLinkVisualizer tags "\"\""
par WiredAndWirelessHostsWithAP.visualizer.physicalLinkVisualizer displayLinks true
par WiredAndWirelessHostsWithAP.visualizer.physicalLinkVisualizer activityLevel "\"service\""
attr enum service,peer,protocol
par WiredAndWirelessHostsWithAP.visualizer.physicalLinkVisualizer nodeFilter "\"*\""
attr mutable ""
par WiredAndWirelessHostsWithAP.visualizer.physicalLinkVisualizer interfaceFilter "\"*\""
attr mutable ""
par WiredAndWirelessHostsWithAP.visualizer.physicalLinkVisualizer packetFilter "(omnetpp::cValueHolder)holder: \"*\""
attr mutable ""
par WiredAndWirelessHostsWithAP.visualizer.physicalLinkVisualizer lineColor "\"olive\""
par WiredAndWirelessHostsWithAP.visualizer.physicalLinkVisualizer lineStyle "\"dotted\""
par WiredAndWirelessHostsWithAP.visualizer.physicalLinkVisualizer lineWidth 3
par WiredAndWirelessHostsWithAP.visualizer.physicalLinkVisualizer lineShift 16
par WiredAndWirelessHostsWithAP.visualizer.physicalLinkVisualizer lineShiftMode "\"normal\""
par WiredAndWirelessHostsWithAP.visualizer.physicalLinkVisualizer lineContactSpacing 3
par WiredAndWirelessHostsWithAP.visualizer.physicalLinkVisualizer lineContactMode "\"rectangular\""
attr enum circular,rectangular
par WiredAndWirelessHostsWithAP.visualizer.physicalLinkVisualizer labelFormat "\"%n\""
par WiredAndWirelessHostsWithAP.visualizer.physicalLinkVisualizer labelFont "\"<default>, 8px\""
par WiredAndWirelessHostsWithAP.visualizer.physicalLinkVisualizer labelColor "\"olive\""
par WiredAndWirelessHostsWithAP.visualizer.physicalLinkVisualizer fadeOutMode "\"realTime\""
attr enum realTime,animationTime,simulationTime
par WiredAndWirelessHostsWithAP.visualizer.physicalLinkVisualizer fadeOutTime 1s
attr unit s
par WiredAndWirelessHostsWithAP.visualizer.physicalLinkVisualizer fadeOutAnimationSpeed 0
par WiredAndWirelessHostsWithAP.visualizer.physicalLinkVisualizer holdAnimationTime 0s
attr unit s
par WiredAndWirelessHostsWithAP.visualizer.physicalLinkVisualizer zIndex 1
par WiredAndWirelessHostsWithAP.visualizer.interfaceTableVisualizer typename "\"inet.visualizer.canvas.linklayer.InterfaceTableCanvasVisualizer\""
par WiredAndWirelessHostsWithAP.visualizer.interfaceTableVisualizer visualizationTargetModule "\"^.^\""
par WiredAndWirelessHostsWithAP.visualizer.interfaceTableVisualizer visualizationSubjectModule "\"^.^\""
par WiredAndWirelessHostsWithAP.visualizer.interfaceTableVisualizer tags "\"\""
par WiredAndWirelessHostsWithAP.visualizer.interfaceTableVisualizer networkNodeVisualizerModule "\"^.networkNodeVisualizer\""
par WiredAndWirelessHostsWithAP.visualizer.interfaceTableVisualizer displayInterfaceTables false
par WiredAndWirelessHostsWithAP.visualizer.interfaceTableVisualizer displayWiredInterfacesAtConnections true
par WiredAndWirelessHostsWithAP.visualizer.interfaceTableVisualizer displayBackground false
par WiredAndWirelessHostsWithAP.visualizer.interfaceTableVisualizer nodeFilter "\"*\""
attr mutable ""
par WiredAndWirelessHostsWithAP.visualizer.interfaceTableVisualizer interfaceFilter "\"not(lo*)\""
attr mutable ""
par WiredAndWirelessHostsWithAP.visualizer.interfaceTableVisualizer format "\"%N %\\\\%a%/%l\""
attr mutable ""
par WiredAndWirelessHostsWithAP.visualizer.interfaceTableVisualizer placementHint "\"top\""
par WiredAndWirelessHostsWithAP.visualizer.interfaceTableVisualizer placementPriority 0
par WiredAndWirelessHostsWithAP.visualizer.interfaceTableVisualizer font "\"<default>\""
par WiredAndWirelessHostsWithAP.visualizer.interfaceTableVisualizer textColor "\"#005030\""
par WiredAndWirelessHostsWithAP.visualizer.interfaceTableVisualizer backgroundColor "\"white\""
par WiredAndWirelessHostsWithAP.visualizer.interfaceTableVisualizer opacity 1
par WiredAndWirelessHostsWithAP.visualizer.interfaceTableVisualizer zIndex 10
par WiredAndWirelessHostsWithAP.visualizer.dataLinkVisualizer typename "\"inet.visualizer.canvas.linklayer.DataLinkCanvasVisualizer\""
par WiredAndWirelessHostsWithAP.visualizer.dataLinkVisualizer visualizationTargetModule "\"^.^\""
par WiredAndWirelessHostsWithAP.visualizer.dataLinkVisualizer visualizationSubjectModule "\"^.^\""
par WiredAndWirelessHostsWithAP.visualizer.dataLinkVisualizer tags "\"\""
par WiredAndWirelessHostsWithAP.visualizer.dataLinkVisualizer displayLinks false
par WiredAndWirelessHostsWithAP.visualizer.dataLinkVisualizer activityLevel "\"service\""
attr enum service,peer,protocol
par WiredAndWirelessHostsWithAP.visualizer.dataLinkVisualizer nodeFilter "\"*\""
attr mutable ""
par WiredAndWirelessHostsWithAP.visualizer.dataLinkVisualizer interfaceFilter "\"*\""
attr mutable ""
par WiredAndWirelessHostsWithAP.visualizer.dataLinkVisualizer packetFilter "(omnetpp::cValueHolder)holder: \"*\""
attr mutable ""
par WiredAndWirelessHostsWithAP.visualizer.dataLinkVisualizer lineColor "\"darkcyan\""
par WiredAndWirelessHostsWithAP.visualizer.dataLinkVisualizer lineStyle "\"solid\""
par WiredAndWirelessHostsWithAP.visualizer.dataLinkVisualizer lineWidth 3
par WiredAndWirelessHostsWithAP.visualizer.dataLinkVisualizer lineShift 16
par WiredAndWirelessHostsWithAP.visualizer.dataLinkVisualizer lineShiftMode "\"normal\""
par WiredAndWirelessHostsWithAP.visualizer.dataLinkVisualizer lineContactSpacing 3
par WiredAndWirelessHostsWithAP.visualizer.dataLinkVisualizer lineContactMode "\"rectangular\""
attr enum circular,rectangular
par WiredAndWirelessHostsWithAP.visualizer.dataLinkVisualizer labelFormat "\"%n\""
par WiredAndWirelessHostsWithAP.visualizer.dataLinkVisualizer labelFont "\"<default>, 8px\""
par WiredAndWirelessHostsWithAP.visualizer.dataLinkVisualizer labelColor "\"darkcyan\""
par WiredAndWirelessHostsWithAP.visualizer.dataLinkVisualizer fadeOutMode "\"realTime\""
attr enum realTime,animationTime,simulationTime
par WiredAndWirelessHostsWithAP.visualizer.dataLinkVisualizer fadeOutTime 1s
attr unit s
par WiredAndWirelessHostsWithAP.visualizer.dataLinkVisualizer fadeOutAnimationSpeed 0
par WiredAndWirelessHostsWithAP.visualizer.dataLinkVisualizer holdAnimationTime 0s
attr unit s
par WiredAndWirelessHostsWithAP.visualizer.dataLinkVisualizer zIndex 2
par WiredAndWirelessHostsWithAP.visualizer.linkBreakVisualizer typename "\"inet.visualizer.canvas.linklayer.LinkBreakCanvasVisualizer\""
par WiredAndWirelessHostsWithAP.visualizer.linkBreakVisualizer visualizationTargetModule "\"^.^\""
par WiredAndWirelessHostsWithAP.visualizer.linkBreakVisualizer visualizationSubjectModule "\"^.^\""
par WiredAndWirelessHostsWithAP.visualizer.linkBreakVisualizer tags "\"\""
par WiredAndWirelessHostsWithAP.visualizer.linkBreakVisualizer displayLinkBreaks false
par WiredAndWirelessHostsWithAP.visualizer.linkBreakVisualizer nodeFilter "\"*\""
attr mutable ""
par WiredAndWirelessHostsWithAP.visualizer.linkBreakVisualizer interfaceFilter "\"*\""
attr mutable ""
par WiredAndWirelessHostsWithAP.visualizer.linkBreakVisualizer packetFilter "(omnetpp::cValueHolder)holder: \"*\""
attr mutable ""
par WiredAndWirelessHostsWithAP.visualizer.linkBreakVisualizer icon "\"status/stop\""
par WiredAndWirelessHostsWithAP.visualizer.linkBreakVisualizer iconTintAmount 0
par WiredAndWirelessHostsWithAP.visualizer.linkBreakVisualizer iconTintColor "\"\""
par WiredAndWirelessHostsWithAP.visualizer.linkBreakVisualizer fadeOutMode "\"realTime\""
attr enum realTime,animationTime,simulationTime
par WiredAndWirelessHostsWithAP.visualizer.linkBreakVisualizer fadeOutTime 1s
attr unit s
par WiredAndWirelessHostsWithAP.visualizer.linkBreakVisualizer fadeOutAnimationSpeed 0
par WiredAndWirelessHostsWithAP.visualizer.linkBreakVisualizer zIndex 2
par WiredAndWirelessHostsWithAP.visualizer.ieee80211Visualizer typename "\"inet.visualizer.canvas.linklayer.Ieee80211CanvasVisualizer\""
par WiredAndWirelessHostsWithAP.visualizer.ieee80211Visualizer visualizationTargetModule "\"^.^\""
par WiredAndWirelessHostsWithAP.visualizer.ieee80211Visualizer visualizationSubjectModule "\"^.^\""
par WiredAndWirelessHostsWithAP.visualizer.ieee80211Visualizer tags "\"\""
par WiredAndWirelessHostsWithAP.visualizer.ieee80211Visualizer networkNodeVisualizerModule "\"^.networkNodeVisualizer\""
par WiredAndWirelessHostsWithAP.visualizer.ieee80211Visualizer displayAssociations false
par WiredAndWirelessHostsWithAP.visualizer.ieee80211Visualizer nodeFilter "\"*\""
attr mutable ""
par WiredAndWirelessHostsWithAP.visualizer.ieee80211Visualizer interfaceFilter "\"*\""
attr mutable ""
par WiredAndWirelessHostsWithAP.visualizer.ieee80211Visualizer minPower -85dBm
attr unit dBm
par WiredAndWirelessHostsWithAP.visualizer.ieee80211Visualizer maxPower -50dBm
attr unit dBm
par WiredAndWirelessHostsWithAP.visualizer.ieee80211Visualizer icons "\"misc/signal_power_0 misc/signal_power_1 misc/signal_power_2 misc/signal_power_3\""
par WiredAndWirelessHostsWithAP.visualizer.ieee80211Visualizer iconColor "\"dark\""
par WiredAndWirelessHostsWithAP.visualizer.ieee80211Visualizer labelFont "\"<default>\""
par WiredAndWirelessHostsWithAP.visualizer.ieee80211Visualizer labelColor "\"black\""
par WiredAndWirelessHostsWithAP.visualizer.ieee80211Visualizer placementHint "\"top\""
par WiredAndWirelessHostsWithAP.visualizer.ieee80211Visualizer placementPriority 0
par WiredAndWirelessHostsWithAP.visualizer.ieee80211Visualizer zIndex 2
par WiredAndWirelessHostsWithAP.visualizer.networkRouteVisualizer typename "\"inet.visualizer.canvas.networklayer.NetworkRouteCanvasVisualizer\""
par WiredAndWirelessHostsWithAP.visualizer.networkRouteVisualizer visualizationTargetModule "\"^.^\""
par WiredAndWirelessHostsWithAP.visualizer.networkRouteVisualizer visualizationSubjectModule "\"^.^\""
par WiredAndWirelessHostsWithAP.visualizer.networkRouteVisualizer tags "\"\""
par WiredAndWirelessHostsWithAP.visualizer.networkRouteVisualizer displayRoutes false
par WiredAndWirelessHostsWithAP.visualizer.networkRouteVisualizer startPathSignal "\"packetReceivedFromUpper\""
par WiredAndWirelessHostsWithAP.visualizer.networkRouteVisualizer extendPathSignal "\"packetReceivedFromLower\""
par WiredAndWirelessHostsWithAP.visualizer.networkRouteVisualizer endPathSignal "\"packetSentToUpper\""
par WiredAndWirelessHostsWithAP.visualizer.networkRouteVisualizer nodeFilter "\"*\""
attr mutable ""
par WiredAndWirelessHostsWithAP.visualizer.networkRouteVisualizer packetFilter "(omnetpp::cValueHolder)holder: \"*\""
attr mutable ""
par WiredAndWirelessHostsWithAP.visualizer.networkRouteVisualizer lineColor "\"dark\""
par WiredAndWirelessHostsWithAP.visualizer.networkRouteVisualizer lineStyle "\"solid\""
par WiredAndWirelessHostsWithAP.visualizer.networkRouteVisualizer lineWidth 3
par WiredAndWirelessHostsWithAP.visualizer.networkRouteVisualizer lineSmooth false
par WiredAndWirelessHostsWithAP.visualizer.networkRouteVisualizer lineShift 16
par WiredAndWirelessHostsWithAP.visualizer.networkRouteVisualizer lineShiftMode "\"normal\""
par WiredAndWirelessHostsWithAP.visualizer.networkRouteVisualizer lineContactSpacing 3
par WiredAndWirelessHostsWithAP.visualizer.networkRouteVisualizer lineContactMode "\"rectangular\""
attr enum circular,rectangular
par WiredAndWirelessHostsWithAP.visualizer.networkRouteVisualizer labelFormat "\"%n\""
par WiredAndWirelessHostsWithAP.visualizer.networkRouteVisualizer labelFont "\"<default>, 8px\""
par WiredAndWirelessHostsWithAP.visualizer.networkRouteVisualizer labelColor "\"\""
par WiredAndWirelessHostsWithAP.visualizer.networkRouteVisualizer fadeOutMode "\"realTime\""
attr enum realTime,animationTime,simulationTime
par WiredAndWirelessHostsWithAP.visualizer.networkRouteVisualizer fadeOutTime 1s
attr unit s
par WiredAndWirelessHostsWithAP.visualizer.networkRouteVisualizer fadeOutAnimationSpeed 0
par WiredAndWirelessHostsWithAP.visualizer.networkRouteVisualizer zIndex 3
par WiredAndWirelessHostsWithAP.visualizer.routingTableVisualizer typename "\"inet.visualizer.canvas.networklayer.RoutingTableCanvasVisualizer\""
par WiredAndWirelessHostsWithAP.visualizer.routingTableVisualizer visualizationTargetModule "\"^.^\""
par WiredAndWirelessHostsWithAP.visualizer.routingTableVisualizer visualizationSubjectModule "\"^.^\""
par WiredAndWirelessHostsWithAP.visualizer.routingTableVisualizer tags "\"\""
par WiredAndWirelessHostsWithAP.visualizer.routingTableVisualizer displayRoutingTables false
par WiredAndWirelessHostsWithAP.visualizer.routingTableVisualizer displayRoutesIndividually true
par WiredAndWirelessHostsWithAP.visualizer.routingTableVisualizer displayLabels true
par WiredAndWirelessHostsWithAP.visualizer.routingTableVisualizer destinationFilter "\"*\""
attr mutable ""
par WiredAndWirelessHostsWithAP.visualizer.routingTableVisualizer nodeFilter "\"*\""
attr mutable ""
par WiredAndWirelessHostsWithAP.visualizer.routingTableVisualizer lineColor "\"black\""
par WiredAndWirelessHostsWithAP.visualizer.routingTableVisualizer lineStyle "\"solid\""
par WiredAndWirelessHostsWithAP.visualizer.routingTableVisualizer lineWidth 2
par WiredAndWirelessHostsWithAP.visualizer.routingTableVisualizer lineShift 16
par WiredAndWirelessHostsWithAP.visualizer.routingTableVisualizer lineShiftMode "\"normal\""
par WiredAndWirelessHostsWithAP.visualizer.routingTableVisualizer lineContactSpacing 3
par WiredAndWirelessHostsWithAP.visualizer.routingTableVisualizer lineContactMode "\"rectangular\""
attr enum circular,rectangular
par WiredAndWirelessHostsWithAP.visualizer.routingTableVisualizer labelFormat "\"%d/%m -> %g (%n)\""
attr mutable ""
par WiredAndWirelessHostsWithAP.visualizer.routingTableVisualizer labelFont "\"<default>, 8px\""
par WiredAndWirelessHostsWithAP.visualizer.routingTableVisualizer labelColor "\"black\""
par WiredAndWirelessHostsWithAP.visualizer.routingTableVisualizer zIndex 0
par WiredAndWirelessHostsWithAP.visualizer.transportRouteVisualizer typename "\"inet.visualizer.canvas.transportlayer.TransportRouteCanvasVisualizer\""
par WiredAndWirelessHostsWithAP.visualizer.transportRouteVisualizer visualizationTargetModule "\"^.^\""
par WiredAndWirelessHostsWithAP.visualizer.transportRouteVisualizer visualizationSubjectModule "\"^.^\""
par WiredAndWirelessHostsWithAP.visualizer.transportRouteVisualizer tags "\"\""
par WiredAndWirelessHostsWithAP.visualizer.transportRouteVisualizer displayRoutes false
par WiredAndWirelessHostsWithAP.visualizer.transportRouteVisualizer startPathSignal "\"packetReceivedFromUpper\""
par WiredAndWirelessHostsWithAP.visualizer.transportRouteVisualizer extendPathSignal "\"packetReceivedFromLower\""
par WiredAndWirelessHostsWithAP.visualizer.transportRouteVisualizer endPathSignal "\"packetSentToUpper\""
par WiredAndWirelessHostsWithAP.visualizer.transportRouteVisualizer nodeFilter "\"*\""
attr mutable ""
par WiredAndWirelessHostsWithAP.visualizer.transportRouteVisualizer packetFilter "(omnetpp::cValueHolder)holder: \"*\""
attr mutable ""
par WiredAndWirelessHostsWithAP.visualizer.transportRouteVisualizer lineColor "\"dark\""
par WiredAndWirelessHostsWithAP.visualizer.transportRouteVisualizer lineStyle "\"solid\""
par WiredAndWirelessHostsWithAP.visualizer.transportRouteVisualizer lineWidth 3
par WiredAndWirelessHostsWithAP.visualizer.transportRouteVisualizer lineSmooth false
par WiredAndWirelessHostsWithAP.visualizer.transportRouteVisualizer lineShift 16
par WiredAndWirelessHostsWithAP.visualizer.transportRouteVisualizer lineShiftMode "\"normal\""
par WiredAndWirelessHostsWithAP.visualizer.transportRouteVisualizer lineContactSpacing 3
par WiredAndWirelessHostsWithAP.visualizer.transportRouteVisualizer lineContactMode "\"rectangular\""
attr enum circular,rectangular
par WiredAndWirelessHostsWithAP.visualizer.transportRouteVisualizer labelFormat "\"%n\""
par WiredAndWirelessHostsWithAP.visualizer.transportRouteVisualizer labelFont "\"<default>, 8px\""
par WiredAndWirelessHostsWithAP.visualizer.transportRouteVisualizer labelColor "\"\""
par WiredAndWirelessHostsWithAP.visualizer.transportRouteVisualizer fadeOutMode "\"realTime\""
attr enum realTime,animationTime,simulationTime
par WiredAndWirelessHostsWithAP.visualizer.transportRouteVisualizer fadeOutTime 1s
attr unit s
par WiredAndWirelessHostsWithAP.visualizer.transportRouteVisualizer fadeOutAnimationSpeed 0
par WiredAndWirelessHostsWithAP.visualizer.transportRouteVisualizer zIndex 4
par WiredAndWirelessHostsWithAP.visualizer.transportConnectionVisualizer typename "\"inet.visualizer.canvas.transportlayer.TransportConnectionCanvasVisualizer\""
par WiredAndWirelessHostsWithAP.visualizer.transportConnectionVisualizer visualizationTargetModule "\"^.^\""
par WiredAndWirelessHostsWithAP.visualizer.transportConnectionVisualizer visualizationSubjectModule "\"^.^\""
par WiredAndWirelessHostsWithAP.visualizer.transportConnectionVisualizer tags "\"\""
par WiredAndWirelessHostsWithAP.visualizer.transportConnectionVisualizer networkNodeVisualizerModule "\"^.networkNodeVisualizer\""
par WiredAndWirelessHostsWithAP.visualizer.transportConnectionVisualizer displayTransportConnections false
par WiredAndWirelessHostsWithAP.visualizer.transportConnectionVisualizer sourceNodeFilter "\"*\""
attr mutable ""
par WiredAndWirelessHostsWithAP.visualizer.transportConnectionVisualizer sourcePortFilter "\"*\""
attr mutable ""
par WiredAndWirelessHostsWithAP.visualizer.transportConnectionVisualizer destinationNodeFilter "\"*\""
attr mutable ""
par WiredAndWirelessHostsWithAP.visualizer.transportConnectionVisualizer destinationPortFilter "\"*\""
attr mutable ""
par WiredAndWirelessHostsWithAP.visualizer.transportConnectionVisualizer icon "\"misc/marker_s\""
par WiredAndWirelessHostsWithAP.visualizer.transportConnectionVisualizer iconColor "\"dark\""
par WiredAndWirelessHostsWithAP.visualizer.transportConnectionVisualizer labelFont "\"<default>\""
par WiredAndWirelessHostsWithAP.visualizer.transportConnectionVisualizer labelColor "\"black\""
par WiredAndWirelessHostsWithAP.visualizer.transportConnectionVisualizer placementHint "\"top\""
par WiredAndWirelessHostsWithAP.visualizer.transportConnectionVisualizer placementPriority 0
par WiredAndWirelessHostsWithAP.visualizer.transportConnectionVisualizer zIndex 4
par WiredAndWirelessHostsWithAP.visualizer.failureProtectionConfigurationVisualizer typename "\"inet.visualizer.canvas.configurator.FailureProtectionConfigurationCanvasVisualizer\""
par WiredAndWirelessHostsWithAP.visualizer.failureProtectionConfigurationVisualizer visualizationTargetModule "\"^.^\""
par WiredAndWirelessHostsWithAP.visualizer.failureProtectionConfigurationVisualizer visualizationSubjectModule "\"^.^\""
par WiredAndWirelessHostsWithAP.visualizer.failureProtectionConfigurationVisualizer tags "\"\""
par WiredAndWirelessHostsWithAP.visualizer.failureProtectionConfigurationVisualizer displayTrees false
par WiredAndWirelessHostsWithAP.visualizer.failureProtectionConfigurationVisualizer lineColor "\"dark\""
par WiredAndWirelessHostsWithAP.visualizer.failureProtectionConfigurationVisualizer lineStyle "\"solid\""
par WiredAndWirelessHostsWithAP.visualizer.failureProtectionConfigurationVisualizer lineWidth 3
par WiredAndWirelessHostsWithAP.visualizer.failureProtectionConfigurationVisualizer lineSmooth false
par WiredAndWirelessHostsWithAP.visualizer.failureProtectionConfigurationVisualizer lineShift 16
par WiredAndWirelessHostsWithAP.visualizer.failureProtectionConfigurationVisualizer lineShiftMode "\"normal\""
par WiredAndWirelessHostsWithAP.visualizer.failureProtectionConfigurationVisualizer lineContactSpacing 3
par WiredAndWirelessHostsWithAP.visualizer.failureProtectionConfigurationVisualizer lineContactMode "\"rectangular\""
attr enum circular,rectangular
par WiredAndWirelessHostsWithAP.visualizer.failureProtectionConfigurationVisualizer failureProtectionConfiguratorModule "\"failureProtectionConfigurator\""
par WiredAndWirelessHostsWithAP.visualizer.failureProtectionConfigurationVisualizer streamFilter "\"*\""
par WiredAndWirelessHostsWithAP.visualizer.failureProtectionConfigurationVisualizer zIndex 3
par WiredAndWirelessHostsWithAP.visualizer.streamRedundancyConfigurationVisualizer typename "\"inet.visualizer.canvas.configurator.StreamRedundancyConfigurationCanvasVisualizer\""
par WiredAndWirelessHostsWithAP.visualizer.streamRedundancyConfigurationVisualizer visualizationTargetModule "\"^.^\""
par WiredAndWirelessHostsWithAP.visualizer.streamRedundancyConfigurationVisualizer visualizationSubjectModule "\"^.^\""
par WiredAndWirelessHostsWithAP.visualizer.streamRedundancyConfigurationVisualizer tags "\"\""
par WiredAndWirelessHostsWithAP.visualizer.streamRedundancyConfigurationVisualizer displayTrees false
par WiredAndWirelessHostsWithAP.visualizer.streamRedundancyConfigurationVisualizer lineColor "\"dark\""
par WiredAndWirelessHostsWithAP.visualizer.streamRedundancyConfigurationVisualizer lineStyle "\"solid\""
par WiredAndWirelessHostsWithAP.visualizer.streamRedundancyConfigurationVisualizer lineWidth 3
par WiredAndWirelessHostsWithAP.visualizer.streamRedundancyConfigurationVisualizer lineSmooth false
par WiredAndWirelessHostsWithAP.visualizer.streamRedundancyConfigurationVisualizer lineShift 16
par WiredAndWirelessHostsWithAP.visualizer.streamRedundancyConfigurationVisualizer lineShiftMode "\"normal\""
par WiredAndWirelessHostsWithAP.visualizer.streamRedundancyConfigurationVisualizer lineContactSpacing 3
par WiredAndWirelessHostsWithAP.visualizer.streamRedundancyConfigurationVisualizer lineContactMode "\"rectangular\""
attr enum circular,rectangular
par WiredAndWirelessHostsWithAP.visualizer.streamRedundancyConfigurationVisualizer streamRedundancyConfiguratorModule "\"streamRedundancyConfigurator\""
par WiredAndWirelessHostsWithAP.visualizer.streamRedundancyConfigurationVisualizer streamFilter "\"*\""
par WiredAndWirelessHostsWithAP.visualizer.streamRedundancyConfigurationVisualizer zIndex 3
par WiredAndWirelessHostsWithAP.visualizer typename "\"inet.visualizer.canvas.integrated.IntegratedCanvasVisualizer\""
par WiredAndWirelessHostsWithAP.configurator typename "\"inet.networklayer.configurator.ipv4.Ipv4NetworkConfigurator\""
par WiredAndWirelessHostsWithAP.configurator minLinkWeight 0.001
par WiredAndWirelessHostsWithAP.configurator configureIsolatedNetworksSeparatly false
par WiredAndWirelessHostsWithAP.configurator config "<config>...</config> at content:1"
par WiredAndWirelessHostsWithAP.configurator assignAddresses true
par WiredAndWirelessHostsWithAP.configurator assignUniqueAddresses true
par WiredAndWirelessHostsWithAP.configurator assignDisjunctSubnetAddresses false
par WiredAndWirelessHostsWithAP.configurator addStaticRoutes true
par WiredAndWirelessHostsWithAP.configurator addDefaultRoutes true
par WiredAndWirelessHostsWithAP.configurator addSubnetRoutes true
par WiredAndWirelessHostsWithAP.configurator addDirectRoutes true
par WiredAndWirelessHostsWithAP.configurator optimizeRoutes true
par WiredAndWirelessHostsWithAP.configurator dumpTopology false
par WiredAndWirelessHostsWithAP.configurator dumpLinks false
par WiredAndWirelessHostsWithAP.configurator dumpAddresses false
par WiredAndWirelessHostsWithAP.configurator dumpRoutes false
par WiredAndWirelessHostsWithAP.configurator dumpConfig "\"\""
par WiredAndWirelessHostsWithAP.radioMedium.propagation typename "\"inet.physicallayer.wireless.common.propagation.ConstantSpeedPropagation\""
par WiredAndWirelessHostsWithAP.radioMedium.propagation propagationSpeed 2.99792e+08mps
attr unit mps
par WiredAndWirelessHostsWithAP.radioMedium.propagation ignoreMovementDuringTransmission true
par WiredAndWirelessHostsWithAP.radioMedium.propagation ignoreMovementDuringPropagation true
[...]
attr recordingmode count
attr source packetSentToLower
attr title "packets transmitted, count"
scalar WiredAndWirelessHostsWithAP.bts.eth[1].mac txPk:sum(packetBytes) 0
attr interpolationmode none
attr recordingmode sum(packetBytes)
attr source packetSentToLower
attr title "packets transmitted, sum(packetBytes)"
scalar WiredAndWirelessHostsWithAP.bts.eth[1].mac packetReceivedFromUpper:count 0
attr interpolationmode none
attr recordingmode count
attr source packetReceivedFromUpper
attr title "packet bytes from higher layer, count"
scalar WiredAndWirelessHostsWithAP.bts.eth[1].mac packetReceivedFromUpper:sum(packetBytes) 0
attr interpolationmode none
attr recordingmode sum(packetBytes)
attr source packetReceivedFromUpper
attr title "packet bytes from higher layer, sum(packetBytes)"
scalar WiredAndWirelessHostsWithAP.bts.eth[1].mac passedUpPk:count 0
attr interpolationmode none
attr recordingmode count
attr source packetSentToUpper
attr title "packets passed to higher layer, count"
scalar WiredAndWirelessHostsWithAP.bts.eth[1].mac passedUpPk:sum(packetBytes) 0
attr interpolationmode none
attr recordingmode sum(packetBytes)
attr source packetSentToUpper
attr title "packets passed to higher layer, sum(packetBytes)"
scalar WiredAndWirelessHostsWithAP.bts.eth[1].mac packetDropIncorrectlyReceived:count 0
attr interpolationmode none
attr recordingmode count
attr source packetDropReasonIsIncorrectlyReceived(packetDropped)
attr title "packet drop: incorrectly received, count"
scalar WiredAndWirelessHostsWithAP.bts.eth[1].mac packetDropIncorrectlyReceived:sum(packetBytes) 0
attr interpolationmode none
attr recordingmode sum(packetBytes)
attr source packetDropReasonIsIncorrectlyReceived(packetDropped)
attr title "packet drop: incorrectly received, sum(packetBytes)"
scalar WiredAndWirelessHostsWithAP.bts.eth[1].mac packetDropInterfaceDown:count 0
attr interpolationmode none
attr recordingmode count
attr source packetDropReasonIsInterfaceDown(packetDropped)
attr title "packet drop: interface down, count"
scalar WiredAndWirelessHostsWithAP.bts.eth[1].mac packetDropInterfaceDown:sum(packetBytes) 0
attr interpolationmode none
attr recordingmode sum(packetBytes)
attr source packetDropReasonIsInterfaceDown(packetDropped)
attr title "packet drop: interface down, sum(packetBytes)"
scalar WiredAndWirelessHostsWithAP.bts.eth[1].mac packetDropNotAddressedToUs:count 0
attr interpolationmode none
attr recordingmode count
attr source packetDropReasonIsNotAddressedToUs(packetDropped)
attr title "packet drop: not addressed to us, count"
scalar WiredAndWirelessHostsWithAP.bts.eth[1].mac packetDropNotAddressedToUs:sum(packetBytes) 0
attr interpolationmode none
attr recordingmode sum(packetBytes)
attr source packetDropReasonIsNotAddressedToUs(packetDropped)
attr title "packet drop: not addressed to us, sum(packetBytes)"
scalar WiredAndWirelessHostsWithAP.bts.eth[1].mac rxPausePkUnits:count 0
attr interpolationmode none
attr recordingmode count
attr title "pause units received, count"
scalar WiredAndWirelessHostsWithAP.bts.eth[1].mac rxPausePkUnits:sum 0
attr interpolationmode none
attr recordingmode sum
attr title "pause units received, sum"
scalar WiredAndWirelessHostsWithAP.bts.eth[1].mac txPausePkUnits:count 0
attr interpolationmode none
attr recordingmode count
attr title "pause units sent, count"
scalar WiredAndWirelessHostsWithAP.bts.eth[1].mac txPausePkUnits:sum 0
attr interpolationmode none
attr recordingmode sum
attr title "pause units sent, sum"
scalar WiredAndWirelessHostsWithAP.bts.eth[1].mac rxPkOk:count 0
attr interpolationmode none
attr recordingmode count
attr source rxPkOk
attr title "packets received OK, count"
scalar WiredAndWirelessHostsWithAP.bts.eth[1].mac rxPkOk:sum(packetBytes) 0
attr interpolationmode none
attr recordingmode sum(packetBytes)
attr source rxPkOk
attr title "packets received OK, sum(packetBytes)"
par WiredAndWirelessHostsWithAP.bts.eth[1] typename "\"inet.linklayer.ethernet.EthernetInterface\""
par WiredAndWirelessHostsWithAP.bts.eth[1] displayStringTextFormat "\"%a (%i)\\n%m\""
par WiredAndWirelessHostsWithAP.bts.eth[1] recordPcap false
par WiredAndWirelessHostsWithAP.bts.eth[1] numPcapRecorders 0
par WiredAndWirelessHostsWithAP.bts.eth[1] interfaceTableModule "\"WiredAndWirelessHostsWithAP.bts.interfaceTable\""
par WiredAndWirelessHostsWithAP.bts.eth[1] protocol "\"ethernetmac\""
par WiredAndWirelessHostsWithAP.bts.eth[1] address "\"0A-AA-00-00-00-22\""
attr mutable ""
par WiredAndWirelessHostsWithAP.bts.eth[1] duplexMode true
par WiredAndWirelessHostsWithAP.bts.eth[1] csmacdSupport false
par WiredAndWirelessHostsWithAP.bts.eth[1] bitrate 0bps
attr unit bps
par WiredAndWirelessHostsWithAP.bts.eth[1] fcsMode "\"declared\""
attr enum declared,computed
scalar WiredAndWirelessHostsWithAP.bts.eth[1] packetDropInterfaceDown:count 0
attr interpolationmode none
attr recordingmode count
attr source packetDropReasonIsInterfaceDown(packetDropped)
attr title "packet drops: interface down, count"
scalar WiredAndWirelessHostsWithAP.bts.eth[1] packetDropInterfaceDown:sum(packetBytes) 0
attr interpolationmode none
attr recordingmode sum(packetBytes)
attr source packetDropReasonIsInterfaceDown(packetDropped)
attr title "packet drops: interface down, sum(packetBytes)"
scalar WiredAndWirelessHostsWithAP.bts.eth[1] packetDropNoCarrier:count 0
attr interpolationmode none
attr recordingmode count
attr source packetDropReasonIsNoCarrier(packetDropped)
attr title "packet drops: no carrier, count"
scalar WiredAndWirelessHostsWithAP.bts.eth[1] packetDropNoCarrier:sum(packetBytes) 0
attr interpolationmode none
attr recordingmode sum(packetBytes)
attr source packetDropReasonIsNoCarrier(packetDropped)
attr title "packet drops: no carrier, sum(packetBytes)"
par WiredAndWirelessHostsWithAP.bts.eth[2].mac.phys$o.channel typename "\"ned.IdealChannel\""
par WiredAndWirelessHostsWithAP.bts.eth[2].phys$i.channel typename "\"ned.IdealChannel\""
par WiredAndWirelessHostsWithAP.bts.eth[2].upperLayerIn.channel typename "\"ned.IdealChannel\""
par WiredAndWirelessHostsWithAP.bts.eth[2].mac.upperLayerOut.channel typename "\"ned.IdealChannel\""
par WiredAndWirelessHostsWithAP.bts.eth[2].queue typename "\"inet.linklayer.ethernet.common.EthernetQueue\""
par WiredAndWirelessHostsWithAP.bts.eth[2].queue displayStringTextFormat "\"contains %p pk (%l) pushed %u\\npulled %o removed %r dropped %d\""
par WiredAndWirelessHostsWithAP.bts.eth[2].queue packetCapacity 1000
par WiredAndWirelessHostsWithAP.bts.eth[2].queue dataCapacity -1b
attr unit b
par WiredAndWirelessHostsWithAP.bts.eth[2].queue dropperClass "\"inet::queueing::PacketAtCollectionEndDropper\""
par WiredAndWirelessHostsWithAP.bts.eth[2].queue comparatorClass "\"inet::EthernetFrameTypeComparator\""
par WiredAndWirelessHostsWithAP.bts.eth[2].queue bufferModule "\"\""
scalar WiredAndWirelessHostsWithAP.bts.eth[2].queue queueLength:last 0
attr autoWarmupFilter false
attr interpolationmode sample-hold
attr recordingmode last
attr source "warmup(atomic(constant0(packetPushEnded) + count(packetPushStarted) - count(packetPulled) - count(packetRemoved) - count(packetDropped)))"
attr title "queue length, last"
attr unit pk
scalar WiredAndWirelessHostsWithAP.bts.eth[2].queue queueLength:max 0
attr autoWarmupFilter false
attr interpolationmode sample-hold
attr recordingmode max
attr source "warmup(atomic(constant0(packetPushEnded) + count(packetPushStarted) - count(packetPulled) - count(packetRemoved) - count(packetDropped)))"
attr title "queue length, max"
attr unit pk
scalar WiredAndWirelessHostsWithAP.bts.eth[2].queue queueLength:timeavg 0
attr autoWarmupFilter false
attr interpolationmode sample-hold
attr recordingmode timeavg
attr source "warmup(atomic(constant0(packetPushEnded) + count(packetPushStarted) - count(packetPulled) - count(packetRemoved) - count(packetDropped)))"
attr title "queue length, timeavg"
attr unit pk
scalar WiredAndWirelessHostsWithAP.bts.eth[2].queue queueBitLength:last 0
attr autoWarmupFilter false
attr interpolationmode sample-hold
attr recordingmode last
attr source "warmup(atomic(constant0(packetPushEnded) + sum(packetLength(packetPushStarted)) - sum(packetLength(packetPulled)) - sum(packetLength(packetRemoved)) - sum(packetLength(packetDropped))))"
attr title "queue bit length, last"
attr unit b
scalar WiredAndWirelessHostsWithAP.bts.eth[2].queue queueBitLength:max 0
attr autoWarmupFilter false
attr interpolationmode sample-hold
attr recordingmode max
attr source "warmup(atomic(constant0(packetPushEnded) + sum(packetLength(packetPushStarted)) - sum(packetLength(packetPulled)) - sum(packetLength(packetRemoved)) - sum(packetLength(packetDropped))))"
attr title "queue bit length, max"
attr unit b
scalar WiredAndWirelessHostsWithAP.bts.eth[2].queue queueBitLength:timeavg 0
attr autoWarmupFilter false
attr interpolationmode sample-hold
attr recordingmode timeavg
attr source "warmup(atomic(constant0(packetPushEnded) + sum(packetLength(packetPushStarted)) - sum(packetLength(packetPulled)) - sum(packetLength(packetRemoved)) - sum(packetLength(packetDropped))))"
attr title "queue bit length, timeavg"
attr unit b
statistic WiredAndWirelessHostsWithAP.bts.eth[2].queue queueingTime:histogram
field count 0
field mean nan
field stddev nan
field min nan
field max nan
field sum 0
field sqrsum 0
attr interpolationmode none
attr recordingmode histogram
attr source queueingTime(packetPulled)
attr title "queueing times"
attr unit s
bin	-inf	0
bin	0	0
bin	1	0
scalar WiredAndWirelessHostsWithAP.bts.eth[2].queue outgoingPackets:count 0
attr recordingmode count
attr source packetPulled
attr title "outgoing packets, count"
attr unit pk
scalar WiredAndWirelessHostsWithAP.bts.eth[2].queue outgoingPacketLengths:sum 0
attr interpolationmode none
attr recordingmode sum
attr source packetLength(packetPulled)
attr title "outgoing packet lengths, sum"
attr unit b
statistic WiredAndWirelessHostsWithAP.bts.eth[2].queue outgoingPacketLengths:histogram
field count 0
field mean nan
field stddev nan
field min nan
field max nan
field sum 0
field sqrsum 0
attr interpolationmode none
attr recordingmode histogram
attr source packetLength(packetPulled)
attr title "outgoing packet lengths"
attr unit b
bin	-inf	0
bin	0	0
bin	1	0
statistic WiredAndWirelessHostsWithAP.bts.eth[2].queue flowQueueingTime:histogram
field count 0
field mean nan
field stddev nan
field min nan
field max nan
field sum 0
field sqrsum 0
attr interpolationmode none
attr recordingmode histogram
attr source queueingTime(demuxFlow(packetPulled))
attr title "flow queueing times"
attr unit s
bin	-inf	0
bin	0	0
bin	1	0
scalar WiredAndWirelessHostsWithAP.bts.eth[2].queue incomingPackets:count 0
attr recordingmode count
attr source packetPushStarted
attr title "incoming packets, count"
attr unit pk
scalar WiredAndWirelessHostsWithAP.bts.eth[2].queue incomingPacketLengths:sum 0
attr interpolationmode none
attr recordingmode sum
attr source packetLength(packetPushStarted)
attr title "incoming packet lengths, sum"
attr unit b
statistic WiredAndWirelessHostsWithAP.bts.eth[2].queue incomingPacketLengths:histogram
field count 0
field mean nan
field stddev nan
field min nan
field max nan
field sum 0
field sqrsum 0
attr interpolationmode none
attr recordingmode histogram
attr source packetLength(packetPushStarted)
attr title "incoming packet lengths"
attr unit b
bin	-inf	0
bin	0	0
bin	1	0
scalar WiredAndWirelessHostsWithAP.bts.eth[2].queue droppedPacketsQueueOverflow:count 0
attr interpolationmode none
attr recordingmode count
attr source packetDropReasonIsQueueOverflow(packetDropped)
attr title "dropped packets: queue overflow, count"
attr unit pk
scalar WiredAndWirelessHostsWithAP.bts.eth[2].queue droppedPacketLengthsQueueOverflow:sum 0
attr interpolationmode none
attr recordingmode sum
attr source packetLength(packetDropReasonIsQueueOverflow(packetDropped))
attr title "dropped packet lengths: queue overflow, sum"
attr unit b
par WiredAndWirelessHostsWithAP.bts.eth[2].mac typename "\"inet.linklayer.ethernet.basic.EthernetMac\""
par WiredAndWirelessHostsWithAP.bts.eth[2].mac interfaceTableModule "\"WiredAndWirelessHostsWithAP.bts.interfaceTable\""
par WiredAndWirelessHostsWithAP.bts.eth[2].mac displayStringTextFormat "\"rate: %b\\nsent: %s, rcvd: %r\\nqueue: %q, drop: %d\""
par WiredAndWirelessHostsWithAP.bts.eth[2].mac sendRawBytes false
par WiredAndWirelessHostsWithAP.bts.eth[2].mac promiscuous true
par WiredAndWirelessHostsWithAP.bts.eth[2].mac duplexMode true
par WiredAndWirelessHostsWithAP.bts.eth[2].mac mtu 1500B
attr unit B
par WiredAndWirelessHostsWithAP.bts.eth[2].mac fcsMode "\"declared\""
attr enum declared,computed
par WiredAndWirelessHostsWithAP.bts.eth[2].mac stopOperationExtraTime -1s
attr unit s
par WiredAndWirelessHostsWithAP.bts.eth[2].mac stopOperationTimeout 2s
attr unit s
scalar WiredAndWirelessHostsWithAP.bts.eth[2].mac "simulated time" 9.858801282712
scalar WiredAndWirelessHostsWithAP.bts.eth[2].mac full-duplex 1
scalar WiredAndWirelessHostsWithAP.bts.eth[2].mac "frames/sec sent" 0
scalar WiredAndWirelessHostsWithAP.bts.eth[2].mac "frames/sec rcvd" 0
scalar WiredAndWirelessHostsWithAP.bts.eth[2].mac "bits/sec sent" 0
scalar WiredAndWirelessHostsWithAP.bts.eth[2].mac "bits/sec rcvd" 0
scalar WiredAndWirelessHostsWithAP.bts.eth[2].mac "rx channel idle (%)" 100
scalar WiredAndWirelessHostsWithAP.bts.eth[2].mac "rx channel utilization (%)" 0
scalar WiredAndWirelessHostsWithAP.bts.eth[2].mac txPk:count 0
attr interpolationmode none
attr recordingmode count
attr source packetSentToLower
attr title "packets transmitted, count"
scalar WiredAndWirelessHostsWithAP.bts.eth[2].mac txPk:sum(packetBytes) 0
attr interpolationmode none
attr recordingmode sum(packetBytes)
attr source packetSentToLower
attr title "packets transmitted, sum(packetBytes)"
scalar WiredAndWirelessHostsWithAP.bts.eth[2].mac packetReceivedFromUpper:count 0
attr interpolationmode none
attr recordingmode count
attr source packetReceivedFromUpper
attr title "packet bytes from higher layer, count"
scalar WiredAndWirelessHostsWithAP.bts.eth[2].mac packetReceivedFromUpper:sum(packetBytes) 0
attr interpolationmode none
attr recordingmode sum(packetBytes)
attr source packetReceivedFromUpper
attr title "packet bytes from higher layer, sum(packetBytes)"
scalar WiredAndWirelessHostsWithAP.bts.eth[2].mac passedUpPk:count 0
attr interpolationmode none
attr recordingmode count
attr source packetSentToUpper
attr title "packets passed to higher layer, count"
scalar WiredAndWirelessHostsWithAP.bts.eth[2].mac passedUpPk:sum(packetBytes) 0
attr interpolationmode none
attr recordingmode sum(packetBytes)
attr source packetSentToUpper
attr title "packets passed to higher layer, sum(packetBytes)"
scalar WiredAndWirelessHostsWithAP.bts.eth[2].mac packetDropIncorrectlyReceived:count 0
attr interpolationmode none
attr recordingmode count
attr source packetDropReasonIsIncorrectlyReceived(packetDropped)
attr title "packet drop: incorrectly received, count"
scalar WiredAndWirelessHostsWithAP.bts.eth[2].mac packetDropIncorrectlyReceived:sum(packetBytes) 0
attr interpolationmode none
attr recordingmode sum(packetBytes)
attr source packetDropReasonIsIncorrectlyReceived(packetDropped)
attr title "packet drop: incorrectly received, sum(packetBytes)"
scalar WiredAndWirelessHostsWithAP.bts.eth[2].mac packetDropInterfaceDown:count 0
attr interpolationmode none
attr recordingmode count
attr source packetDropReasonIsInterfaceDown(packetDropped)
attr title "packet drop: interface down, count"
scalar WiredAndWirelessHostsWithAP.bts.eth[2].mac packetDropInterfaceDown:sum(packetBytes) 0
attr interpolationmode none
attr recordingmode sum(packetBytes)
attr source packetDropReasonIsInterfaceDown(packetDropped)
attr title "packet drop: interface down, sum(packetBytes)"
scalar WiredAndWirelessHostsWithAP.bts.eth[2].mac packetDropNotAddressedToUs:count 0
attr interpolationmode none
attr recordingmode count
attr source packetDropReasonIsNotAddressedToUs(packetDropped)
attr title "packet drop: not addressed to us, count"
scalar WiredAndWirelessHostsWithAP.bts.eth[2].mac packetDropNotAddressedToUs:sum(packetBytes) 0
attr interpolationmode none
attr recordingmode sum(packetBytes)
attr source packetDropReasonIsNotAddressedToUs(packetDropped)
attr title "packet drop: not addressed to us, sum(packetBytes)"
scalar WiredAndWirelessHostsWithAP.bts.eth[2].mac rxPausePkUnits:count 0
attr interpolationmode none
attr recordingmode count
attr title "pause units received, count"
scalar WiredAndWirelessHostsWithAP.bts.eth[2].mac rxPausePkUnits:sum 0
attr interpolationmode none
attr recordingmode sum
attr title "pause units received, sum"
scalar WiredAndWirelessHostsWithAP.bts.eth[2].mac txPausePkUnits:count 0
attr interpolationmode none
attr recordingmode count
attr title "pause units sent, count"
scalar WiredAndWirelessHostsWithAP.bts.eth[2].mac txPausePkUnits:sum 0
attr interpolationmode none
attr recordingmode sum
attr title "pause units sent, sum"
scalar WiredAndWirelessHostsWithAP.bts.eth[2].mac rxPkOk:count 0
attr interpolationmode none
attr recordingmode count
attr source rxPkOk
attr title "packets received OK, count"
scalar WiredAndWirelessHostsWithAP.bts.eth[2].mac rxPkOk:sum(packetBytes) 0
attr interpolationmode none
attr recordingmode sum(packetBytes)
attr source rxPkOk
attr title "packets received OK, sum(packetBytes)"
par WiredAndWirelessHostsWithAP.bts.eth[2] typename "\"inet.linklayer.ethernet.EthernetInterface\""
par WiredAndWirelessHostsWithAP.bts.eth[2] displayStringTextFormat "\"%a (%i)\\n%m\""
par WiredAndWirelessHostsWithAP.bts.eth[2] recordPcap false
par WiredAndWirelessHostsWithAP.bts.eth[2] numPcapRecorders 0
par WiredAndWirelessHostsWithAP.bts.eth[2] interfaceTableModule "\"WiredAndWirelessHostsWithAP.bts.interfaceTable\""
par WiredAndWirelessHostsWithAP.bts.eth[2] protocol "\"ethernetmac\""
par WiredAndWirelessHostsWithAP.bts.eth[2] address "\"0A-AA-00-00-00-23\""
attr mutable ""
par WiredAndWirelessHostsWithAP.bts.eth[2] duplexMode true
par WiredAndWirelessHostsWithAP.bts.eth[2] csmacdSupport false
par WiredAndWirelessHostsWithAP.bts.eth[2] bitrate 0bps
attr unit bps
par WiredAndWirelessHostsWithAP.bts.eth[2] fcsMode "\"declared\""
attr enum declared,computed
scalar WiredAndWirelessHostsWithAP.bts.eth[2] packetDropInterfaceDown:count 0
attr interpolationmode none
attr recordingmode count
attr source packetDropReasonIsInterfaceDown(packetDropped)
attr title "packet drops: interface down, count"
scalar WiredAndWirelessHostsWithAP.bts.eth[2] packetDropInterfaceDown:sum(packetBytes) 0
attr interpolationmode none
attr recordingmode sum(packetBytes)
attr source packetDropReasonIsInterfaceDown(packetDropped)
attr title "packet drops: interface down, sum(packetBytes)"
scalar WiredAndWirelessHostsWithAP.bts.eth[2] packetDropNoCarrier:count 0
attr interpolationmode none
attr recordingmode count
attr source packetDropReasonIsNoCarrier(packetDropped)
attr title "packet drops: no carrier, count"
scalar WiredAndWirelessHostsWithAP.bts.eth[2] packetDropNoCarrier:sum(packetBytes) 0
attr interpolationmode none
attr recordingmode sum(packetBytes)
attr source packetDropReasonIsNoCarrier(packetDropped)
attr title "packet drops: no carrier, sum(packetBytes)"
par WiredAndWirelessHostsWithAP.bts typename "\"inet.node.wireless.AccessPoint\""
par WiredAndWirelessHostsWithAP.bts numWlanInterfaces 1
par WiredAndWirelessHostsWithAP.bts hasStatus false
par WiredAndWirelessHostsWithAP.bts fcsMode "\"declared\""
attr enum declared,computed
par WiredAndWirelessHostsWithAP typename "\"sdnproject.WiredAndWirelessHostsWithAP\""

