version 3
run General-0-20250224-12:25:34-11464
attr configname General
attr datetime 20250224-12:25:34
attr datetimef 20250224-122534
attr experiment General
attr inifile omnetpp.ini
attr iterationvars ""
attr iterationvarsd ""
attr iterationvarsf ""
attr measurement ""
attr network sdnproject.WiredAndWirelessHostsWithAP
attr processid 11464
attr repetition 0
attr replication #0
attr resultdir results
attr runnumber 0
attr seedset 0
config image-path ../../../../inet4.5/images
config network sdnproject.WiredAndWirelessHostsWithAP
config sim-time-limit 400s
config **.addDefaultRoutes true
config **.*Server*.numApps 3
config **.*Server*.app[0].typename UdpEchoApp
config **.*Server*.app[0].localPort 1000
config **.*Server*.app[*].typename UdpBasicApp
config **.CoreServer5.app[1].destAddresses "\"mobileServer1\""
config **.CoreServer5.app[2].destAddresses "\"CoreServer1\""
config **.CoreServer1.app[1].destAddresses "\"mobileServer1\""
config **.CoreServer1.app[2].destAddresses "\"CoreServer5\""
config **.mobileServer1.app[1].destAddresses "\"CoreServer5\""
config **.mobileServer1.app[2].destAddresses "\"CoreServer1\""
config **.*Server*.app[1..].destPort 1000
config **.*Server*.app[1..].messageLength 100B
config **.*Server*.app[1..].sendInterval 1s
config **.*Server*.app[1..].stopTime 300s
config **.initialZ 0m
config *.bts.radioMedium.txPower 30mW
config *.bts.radioMedium.centerFrequency 28GHz
config *.bts.wlan[0].radioMedium "\"IRadioMedium\""
config *.bts.wlan[0].radio.transmitter.communicationRange 500m
config *.radioMedium.phyMode "\"OFDM\""
config *.mobileServer1.mobility.typename TractorMobility
config *.mobileServer1.mobility.x1 2000m
config *.mobileServer1.mobility.y1 1542m
config *.mobileServer1.mobility.x2 2100m
config *.mobileServer1.mobility.y2 1800m
config *.mobileServer1.mobility.rowCount 5
config *.mobileServer1.mobility.speed 50mps
config *.mobileServer2.mobility.typename TractorMobility
config *.mobileServer2.mobility.x1 967m
config *.mobileServer2.mobility.y1 1542m
config *.mobileServer2.mobility.x2 1300m
config *.mobileServer2.mobility.y2 1600m
config *.mobileServer2.mobility.rowCount 6
config *.mobileServer2.mobility.speed 80mps
config *.mobileServer3.mobility.typename TractorMobility
config *.mobileServer3.mobility.x1 1179m
config *.mobileServer3.mobility.y1 700m
config *.mobileServer3.mobility.x2 600m
config *.mobileServer3.mobility.y2 300m
config *.mobileServer3.mobility.rowCount 6
config *.mobileServer3.mobility.speed 90mps
config *.mobileServer4.mobility.typename TractorMobility
config *.mobileServer4.mobility.x1 1416m
config *.mobileServer4.mobility.y1 911m
config *.mobileServer4.mobility.x2 1200m
config *.mobileServer4.mobility.y2 500m
config *.mobileServer4.mobility.rowCount 7
config *.mobileServer4.mobility.speed 100mps
config *.bts.wlan[0].radio.displayCommunicationRange true
config *.visualizer.mediumVisualizer.displaySignals true
config *.visualizer.physicalLinkVisualizer.displayLinks true

vector 0 WiredAndWirelessHostsWithAP.mobileServer1.lo[0].lo rcvdPkFromHl:vector(packetBytes) ETV
attr interpolationmode none
attr recordingmode vector(packetBytes)
attr source packetReceivedFromUpper
attr title "packets received from higher layer, packetBytes"
vector 1 WiredAndWirelessHostsWithAP.mobileServer1.lo[0].lo passedUpPk:vector(packetBytes) ETV
attr interpolationmode none
attr recordingmode vector(packetBytes)
attr source packetSentToUpper
attr title "packets passed to higher layer, packetBytes"
vector 2 WiredAndWirelessHostsWithAP.mobileServer1.lo[0] packetDropInterfaceDown:vector(packetBytes) ETV
attr interpolationmode none
attr recordingmode vector(packetBytes)
attr source packetDropReasonIsInterfaceDown(packetDropped)
attr title "packet drops: interface down, packetBytes"
vector 3 WiredAndWirelessHostsWithAP.mobileServer1.lo[0] packetDropNoCarrier:vector(packetBytes) ETV
attr interpolationmode none
attr recordingmode vector(packetBytes)
attr source packetDropReasonIsNoCarrier(packetDropped)
attr title "packet drops: no carrier, packetBytes"
vector 4 WiredAndWirelessHostsWithAP.mobileServer1.wlan[0].agent sentRequest:vector ETV
attr recordingmode vector
attr title "sent requests"
vector 5 WiredAndWirelessHostsWithAP.mobileServer1.wlan[0].agent acceptConfirm:vector ETV
attr recordingmode vector
attr title "accepted confirms"
vector 6 WiredAndWirelessHostsWithAP.mobileServer1.wlan[0].agent dropConfirm:vector ETV
attr recordingmode vector
attr title "dropped confirms"
vector 7 WiredAndWirelessHostsWithAP.mobileServer1.wlan[0].mac.dcf.channelAccess.pendingQueue queueLength:vector ETV
attr autoWarmupFilter false
attr interpolationmode sample-hold
attr recordingmode vector
attr source "warmup(atomic(constant0(packetPushEnded) + count(packetPushStarted) - count(packetPulled) - count(packetRemoved) - count(packetDropped)))"
attr title "queue length"
attr unit pk
vector 8 WiredAndWirelessHostsWithAP.mobileServer1.wlan[0].mac.dcf.channelAccess.pendingQueue queueBitLength:vector ETV
attr autoWarmupFilter false
attr interpolationmode sample-hold
attr recordingmode vector
attr source "warmup(atomic(constant0(packetPushEnded) + sum(packetLength(packetPushStarted)) - sum(packetLength(packetPulled)) - sum(packetLength(packetRemoved)) - sum(packetLength(packetDropped))))"
attr title "queue bit length"
attr unit b
vector 9 WiredAndWirelessHostsWithAP.mobileServer1.wlan[0].mac.dcf.channelAccess.pendingQueue queueingTime:vector ETV
attr interpolationmode none
attr recordingmode vector
attr source queueingTime(packetPulled)
attr title "queueing times"
attr unit s
vector 10 WiredAndWirelessHostsWithAP.mobileServer1.wlan[0].mac.dcf.channelAccess.pendingQueue incomingPacketLengths:vector ETV
attr interpolationmode none
attr recordingmode vector
attr source packetLength(packetPushStarted)
attr title "incoming packet lengths"
attr unit b
vector 11 WiredAndWirelessHostsWithAP.mobileServer1.wlan[0].mac.dcf.channelAccess.pendingQueue incomingDataRate:vector ETV
attr interpolationmode linear
attr recordingmode vector
attr source throughput(packetPushStarted)
attr title "incoming datarate"
attr unit bps
vector 12 WiredAndWirelessHostsWithAP.mobileServer1.wlan[0].mac.dcf.channelAccess.pendingQueue outgoingPacketLengths:vector ETV
attr interpolationmode none
attr recordingmode vector
attr source packetLength(packetPulled)
attr title "outgoing packet lengths"
attr unit b
vector 13 WiredAndWirelessHostsWithAP.mobileServer1.wlan[0].mac.dcf.channelAccess.pendingQueue outgoingDataRate:vector ETV
attr interpolationmode linear
attr recordingmode vector
attr source throughput(packetPulled)
attr title "outgoing datarate"
attr unit bps
vector 14 WiredAndWirelessHostsWithAP.mobileServer1.wlan[0].mac.dcf.channelAccess.pendingQueue droppedPacketLengthsQueueOverflow:vector ETV
attr interpolationmode none
attr recordingmode vector
attr source packetLength(packetDropReasonIsQueueOverflow(packetDropped))
attr title "dropped packet lengths: queue overflow"
attr unit b
vector 15 WiredAndWirelessHostsWithAP.mobileServer1.wlan[0].mac.dcf.channelAccess.pendingQueue flowQueueingTime:vector ETV
attr interpolationmode none
attr recordingmode vector
attr source queueingTime(demuxFlow(packetPulled))
attr title "flow queueing times"
attr unit s
vector 16 WiredAndWirelessHostsWithAP.mobileServer1.wlan[0].mac.dcf.channelAccess.pendingQueue flowIncomingDataRate:vector ETV
attr interpolationmode linear
attr recordingmode vector
attr source throughput(flowPacketLength(demuxFlow(packetPushStarted)))
attr title "flow specific incoming data rate"
attr unit bps
vector 17 WiredAndWirelessHostsWithAP.mobileServer1.wlan[0].mac.dcf.channelAccess.pendingQueue flowOutgoingDataRate:vector ETV
attr interpolationmode linear
attr recordingmode vector
attr source throughput(flowPacketLength(demuxFlow(packetPulled)))
attr title "flow specific outgoing data rate"
attr unit bps
vector 18 WiredAndWirelessHostsWithAP.mobileServer1.wlan[0].mac.dcf.channelAccess.inProgressFrames queueingTime:vector ETV
attr interpolationmode none
attr recordingmode vector
attr source queueingTime(packetDequeued)
attr title "queueing times"
vector 19 WiredAndWirelessHostsWithAP.mobileServer1.wlan[0].mac.dcf.channelAccess.inProgressFrames queueLength:vector ETV
attr autoWarmupFilter false
attr interpolationmode sample-hold
attr recordingmode vector
attr source "warmup(count(packetEnqueued) - count(packetDequeued))"
attr title "queue length"
vector 20 WiredAndWirelessHostsWithAP.mobileServer1.wlan[0].mac.dcf.channelAccess.contention backoffPeriodGenerated:vector ETV
attr interpolationmode none
attr recordingmode vector
attr title "backoff periods"
vector 21 WiredAndWirelessHostsWithAP.mobileServer1.wlan[0].mac.dcf.channelAccess.contention backoffActive:vector ETV
attr autoWarmupFilter false
attr interpolationmode sample-hold
attr recordingmode vector
attr source warmup(count(backoffStarted)-count(backoffStopped))
attr title "backoff active"
vector 22 WiredAndWirelessHostsWithAP.mobileServer1.wlan[0].mac.dcf.channelAccess.contention stateChanged:vector ETV
attr enum IDLE,DEFER,IFS_AND_BACKOFF
attr interpolationmode none
attr recordingmode vector
attr title "contention state changed"
attr type enum
vector 23 WiredAndWirelessHostsWithAP.mobileServer1.wlan[0].mac.dcf.recipientMacDataService packetDropDuplicateDetected:vector(packetBytes) ETV
attr interpolationmode none
attr recordingmode vector(packetBytes)
attr source packetDropReasonIsDuplicateDetected(packetDropped)
attr title "packet drops: duplicate detected, packetBytes"
vector 24 WiredAndWirelessHostsWithAP.mobileServer1.wlan[0].mac.dcf.recoveryProcedure contentionWindowChanged:vector ETV
attr interpolationmode sample-hold
attr recordingmode vector
attr title "contention window"
vector 25 WiredAndWirelessHostsWithAP.mobileServer1.wlan[0].mac.dcf packetSentToPeer:vector(packetBytes) ETV
attr interpolationmode none
attr recordingmode vector(packetBytes)
attr title "packets sent, packetBytes"
vector 26 WiredAndWirelessHostsWithAP.mobileServer1.wlan[0].mac.dcf packetSentToPeerUnicast:vector(packetBytes) ETV
attr interpolationmode none
attr recordingmode vector(packetBytes)
attr source ieee80211Unicast(packetSentToPeer)
attr title "packets sent: unicast, packetBytes"
vector 27 WiredAndWirelessHostsWithAP.mobileServer1.wlan[0].mac.dcf packetSentToPeerMulticast:vector(packetBytes) ETV
attr interpolationmode none
attr recordingmode vector(packetBytes)
attr source ieee80211Multicast(packetSentToPeer)
attr title "packets sent: multicast, packetBytes"
vector 28 WiredAndWirelessHostsWithAP.mobileServer1.wlan[0].mac.dcf packetSentToPeerBroadcast:vector(packetBytes) ETV
attr interpolationmode none
attr recordingmode vector(packetBytes)
attr source ieee80211Broadcast(packetSentToPeer)
attr title "packets sent: broadcast , packetBytes"
vector 29 WiredAndWirelessHostsWithAP.mobileServer1.wlan[0].mac.dcf packetSentToPeerWithRetry:vector(packetBytes) ETV
attr interpolationmode none
attr recordingmode vector(packetBytes)
attr source ieee80211Retry(packetSentToPeer)
attr title "packets sent: with retry, packetBytes"
vector 30 WiredAndWirelessHostsWithAP.mobileServer1.wlan[0].mac.dcf packetSentToPeerWithoutRetry:vector(packetBytes) ETV
attr interpolationmode none
attr recordingmode vector(packetBytes)
attr source ieee80211NotRetry(packetSentToPeer)
attr title "packets sent: without retry, packetBytes"
vector 31 WiredAndWirelessHostsWithAP.mobileServer1.wlan[0].mac.dcf packetReceivedFromPeer:vector(packetBytes) ETV
attr interpolationmode none
attr recordingmode vector(packetBytes)
attr title "packets received, packetBytes"
vector 32 WiredAndWirelessHostsWithAP.mobileServer1.wlan[0].mac.dcf packetReceivedFromPeerUnicast:vector(packetBytes) ETV
attr interpolationmode none
attr recordingmode vector(packetBytes)
attr source ieee80211Unicast(packetReceivedFromPeer)
attr title "packets received: unicast, packetBytes"
vector 33 WiredAndWirelessHostsWithAP.mobileServer1.wlan[0].mac.dcf packetReceivedFromPeerMulticast:vector(packetBytes) ETV
attr interpolationmode none
attr recordingmode vector(packetBytes)
attr source ieee80211Multicast(packetReceivedFromPeer)
attr title "packets received: multicast, packetBytes"
vector 34 WiredAndWirelessHostsWithAP.mobileServer1.wlan[0].mac.dcf packetReceivedFromPeerBroadcast:vector(packetBytes) ETV
attr interpolationmode none
attr recordingmode vector(packetBytes)
attr source ieee80211Broadcast(packetReceivedFromPeer)
attr title "packets received: broadcast, packetBytes"
vector 35 WiredAndWirelessHostsWithAP.mobileServer1.wlan[0].mac.dcf packetReceivedFromPeerWithRetry:vector(packetBytes) ETV
attr interpolationmode none
attr recordingmode vector(packetBytes)
attr source ieee80211Retry(packetReceivedFromPeer)
attr title "packets received: with retry, packetBytes"
vector 36 WiredAndWirelessHostsWithAP.mobileServer1.wlan[0].mac.dcf packetReceivedFromPeerWithoutRetry:vector(packetBytes) ETV
attr interpolationmode none
attr recordingmode vector(packetBytes)
attr source ieee80211NotRetry(packetReceivedFromPeer)
attr title "packets received: without retry, packetBytes"
vector 37 WiredAndWirelessHostsWithAP.mobileServer1.wlan[0].mac.dcf packetDrop:vector(packetBytes) ETV
attr interpolationmode none
attr recordingmode vector(packetBytes)
attr source packetDropped
attr title "packet drops, packetBytes"
vector 38 WiredAndWirelessHostsWithAP.mobileServer1.wlan[0].mac.dcf packetDropNotAddressedToUs:vector(packetBytes) ETV
attr interpolationmode none
attr recordingmode vector(packetBytes)
attr source packetDropReasonIsNotAddressedToUs(packetDropped)
attr title "packet drops: not addressed to us, packetBytes"
vector 39 WiredAndWirelessHostsWithAP.mobileServer1.wlan[0].mac.dcf packetDropQueueOverflow:vector(packetBytes) ETV
attr interpolationmode none
attr recordingmode vector(packetBytes)
attr source packetDropReasonIsQueueOverflow(packetDropped)
attr title "packet drops: queue overflow, packetBytes"
vector 40 WiredAndWirelessHostsWithAP.mobileServer1.wlan[0].mac.dcf packetDropRetryLimitReached:vector(packetBytes) ETV
attr interpolationmode none
attr recordingmode vector(packetBytes)
attr source packetDropReasonIsRetryLimitReached(packetDropped)
attr title "packet drops: retry limit reached, packetBytes"
vector 41 WiredAndWirelessHostsWithAP.mobileServer1.wlan[0].mac.dcf frameSequenceActive:vector ETV
attr autoWarmupFilter false
attr interpolationmode sample-hold
attr recordingmode vector
attr source warmup(count(frameSequenceStarted)-count(frameSequenceFinished))
attr title "frame sequence active"
vector 42 WiredAndWirelessHostsWithAP.mobileServer1.wlan[0].mac.dcf datarateSelected:vector ETV
attr interpolationmode none
attr recordingmode vector
attr title "datarates selected"
vector 43 WiredAndWirelessHostsWithAP.mobileServer1.wlan[0].mac.rx nav:vector ETV
attr interpolationmode linear
attr recordingmode vector
attr source navChanged
attr title "network allocation vector"
vector 44 WiredAndWirelessHostsWithAP.mobileServer1.wlan[0].mac packetSentToUpper:vector(packetBytes) ETV
attr interpolationmode none
attr recordingmode vector(packetBytes)
attr title "packets sent to upper layer, packetBytes"
vector 45 WiredAndWirelessHostsWithAP.mobileServer1.wlan[0].mac packetSentToLower:vector(packetBytes) ETV
attr interpolationmode none
attr recordingmode vector(packetBytes)
attr title "packets sent to lower layer, packetBytes"
vector 46 WiredAndWirelessHostsWithAP.mobileServer1.wlan[0].mac packetReceivedFromUpper:vector(packetBytes) ETV
attr interpolationmode none
attr recordingmode vector(packetBytes)
attr title "packets received from upper layer, packetBytes"
vector 47 WiredAndWirelessHostsWithAP.mobileServer1.wlan[0].mac packetReceivedFromLower:vector(packetBytes) ETV
attr interpolationmode none
attr recordingmode vector(packetBytes)
attr title "packets received from lower layer, packetBytes"
vector 48 WiredAndWirelessHostsWithAP.mobileServer1.wlan[0].mac packetDrop:vector(packetBytes) ETV
attr interpolationmode none
attr recordingmode vector(packetBytes)
attr source packetDropped
attr title "packet drops, packetBytes"
vector 49 WiredAndWirelessHostsWithAP.mobileServer1.wlan[0].mac packetDropIncorrectlyReceived:vector(packetBytes) ETV
attr interpolationmode none
attr recordingmode vector(packetBytes)
attr source packetDropReasonIsIncorrectlyReceived(packetDropped)
attr title "packet drops: incorrectly received, packetBytes"
vector 50 WiredAndWirelessHostsWithAP.mobileServer1.wlan[0].mac packetDropNotAddressedToUs:vector(packetBytes) ETV
attr interpolationmode none
attr recordingmode vector(packetBytes)
attr source packetDropReasonIsNotAddressedToUs(packetDropped)
attr title "packet drops: not addressed to us, packetBytes"
vector 51 WiredAndWirelessHostsWithAP.mobileServer1.wlan[0].mac packetDropQueueOverflow:vector(packetBytes) ETV
attr interpolationmode none
attr recordingmode vector(packetBytes)
attr source packetDropReasonIsQueueOverflow(packetDropped)
attr title "packet drops: queue overflow, packetBytes"
vector 52 WiredAndWirelessHostsWithAP.mobileServer1.wlan[0].mac packetDropRetryLimitReached:vector(packetBytes) ETV
attr interpolationmode none
attr recordingmode vector(packetBytes)
attr source packetDropReasonIsRetryLimitReached(packetDropped)
attr title "packet drops: retry limit reached, packetBytes"
vector 53 WiredAndWirelessHostsWithAP.mobileServer1.wlan[0].mac packetDropDuplicateDetected:vector(packetBytes) ETV
attr interpolationmode none
attr recordingmode vector(packetBytes)
attr source packetDropReasonIsDuplicateDetected(packetDropped)
attr title "packet drops: duplicate detected, packetBytes"
vector 54 WiredAndWirelessHostsWithAP.mobileServer1.wlan[0].mac packetDropOther:vector(packetBytes) ETV
attr interpolationmode none
attr recordingmode vector(packetBytes)
attr source packetDropReasonIsOther(packetDropped)
attr title "packet drops: other, packetBytes"
vector 55 WiredAndWirelessHostsWithAP.mobileServer1.wlan[0].radio radioMode:vector ETV
attr interpolationmode sample-hold
attr recordingmode vector
attr source radioModeChanged
attr title "Radio mode"
vector 56 WiredAndWirelessHostsWithAP.mobileServer1.wlan[0].radio receptionState:vector ETV
attr interpolationmode sample-hold
attr recordingmode vector
attr source receptionStateChanged
attr title "Radio reception state"
vector 57 WiredAndWirelessHostsWithAP.mobileServer1.wlan[0].radio transmissionState:vector ETV
attr interpolationmode sample-hold
attr recordingmode vector
attr source transmissionStateChanged
attr title "Radio transmission state"
vector 58 WiredAndWirelessHostsWithAP.mobileServer1.wlan[0].radio radioChannel:vector ETV
attr interpolationmode sample-hold
attr recordingmode vector
attr source radioChannelChanged
attr title "Radio channel"
vector 59 WiredAndWirelessHostsWithAP.mobileServer1.wlan[0] packetDropInterfaceDown:vector(packetBytes) ETV
attr interpolationmode none
attr recordingmode vector(packetBytes)
attr source packetDropReasonIsInterfaceDown(packetDropped)
attr title "packet drops: interface down, packetBytes"
vector 60 WiredAndWirelessHostsWithAP.mobileServer1.wlan[0] packetDropNoCarrier:vector(packetBytes) ETV
attr interpolationmode none
attr recordingmode vector(packetBytes)
attr source packetDropReasonIsNoCarrier(packetDropped)
attr title "packet drops: no carrier, packetBytes"
vector 61 WiredAndWirelessHostsWithAP.mobileServer1.ipv4.ip packetDropAddressResolutionFailed:vector(packetBytes) ETV
attr interpolationmode none
attr recordingmode vector(packetBytes)
attr source packetDropReasonIsAddressResolutionFailed(packetDropped)
attr title "packet drop: address resolution failed, packetBytes"
vector 62 WiredAndWirelessHostsWithAP.mobileServer1.ipv4.ip packetDropHopLimitReached:vector(packetBytes) ETV
attr interpolationmode none
attr recordingmode vector(packetBytes)
attr source packetDropReasonIsHopLimitReached(packetDropped)
attr title "packet drop: hop limit reached, packetBytes"
vector 63 WiredAndWirelessHostsWithAP.mobileServer1.ipv4.ip packetDropForwardingDisabled:vector(packetBytes) ETV
attr interpolationmode none
attr recordingmode vector(packetBytes)
attr source packetDropReasonIsForwardingDisabled(packetDropped)
attr title "packet drop: forwarding disabled, packetBytes"
vector 64 WiredAndWirelessHostsWithAP.mobileServer1.ipv4.ip packetDropNoInterfaceFound:vector(packetBytes) ETV
attr interpolationmode none
attr recordingmode vector(packetBytes)
attr source packetDropReasonIsNoInterfaceFound(packetDropped)
attr title "packet drop: no interface found, packetBytes"
vector 65 WiredAndWirelessHostsWithAP.mobileServer1.ipv4.ip packetDropNoRouteFound:vector(packetBytes) ETV
attr interpolationmode none
attr recordingmode vector(packetBytes)
attr source packetDropReasonIsNoRouteFound(packetDropped)
attr title "packet drop: no route found, packetBytes"
vector 66 WiredAndWirelessHostsWithAP.mobileServer1.ipv4.ip packetDropUndefined:vector(packetBytes) ETV
attr interpolationmode none
attr recordingmode vector(packetBytes)
attr source packetDropReasonIsUndefined(packetDropped)
attr title "packet drop: undefined, packetBytes"
vector 67 WiredAndWirelessHostsWithAP.mobileServer1.ipv4.arp arpRequestSent:vector(packetBytes) ETV
attr recordingmode vector(packetBytes)
attr source arpRequestSent
attr title "ARP request sent, packetBytes"
vector 68 WiredAndWirelessHostsWithAP.mobileServer1.ipv4.arp arpReplySent:vector(packetBytes) ETV
attr recordingmode vector(packetBytes)
attr source arpReplySent
attr title "ARP replies sent, packetBytes"
vector 69 WiredAndWirelessHostsWithAP.mobileServer1.udp packetSent:vector(packetBytes) ETV
attr interpolationmode none
attr recordingmode vector(packetBytes)
attr source packetSent
attr title "packets sent, packetBytes"
vector 70 WiredAndWirelessHostsWithAP.mobileServer1.udp packetReceived:vector(packetBytes) ETV
attr interpolationmode none
attr recordingmode vector(packetBytes)
attr source packetReceived
attr title "packets received, packetBytes"
vector 71 WiredAndWirelessHostsWithAP.mobileServer1.udp passedUpPk:vector(count) ETV
attr interpolationmode none
attr recordingmode vector(count)
attr source packetSentToUpper
attr title "packets passed up, count"
vector 72 WiredAndWirelessHostsWithAP.mobileServer1.udp droppedPkWrongPort:vector(count) ETV
attr interpolationmode none
attr recordingmode vector(count)
attr source packetDropReasonIsNoPortFound(packetDropped)
attr title "packets dropped (wrong port), count"
vector 73 WiredAndWirelessHostsWithAP.mobileServer1.udp droppedPkBadChecksum:vector(count) ETV
attr interpolationmode none
attr recordingmode vector(count)
attr source packetDropReasonIsIncorrectlyReceived(packetDropped)
attr title "packets dropped (checksum error), count"
vector 74 WiredAndWirelessHostsWithAP.mobileServer1.app[0] echoedPk:vector(packetBytes) ETV
attr interpolationmode none
attr recordingmode vector(packetBytes)
attr source packetSent
attr title "packets echoed, packetBytes"
vector 75 WiredAndWirelessHostsWithAP.mobileServer1.app[1] packetReceived:vector(packetBytes) ETV
attr interpolationmode none
attr recordingmode vector(packetBytes)
attr source packetReceived
attr title "packets received, packetBytes"
vector 76 WiredAndWirelessHostsWithAP.mobileServer1.app[1] throughput:vector ETV
attr recordingmode vector
attr source throughput(packetReceived)
attr title throughput
attr unit bps
vector 77 WiredAndWirelessHostsWithAP.mobileServer1.app[1] packetSent:vector(packetBytes) ETV
attr interpolationmode none
attr recordingmode vector(packetBytes)
attr source packetSent
attr title "packets sent, packetBytes"
vector 78 WiredAndWirelessHostsWithAP.mobileServer1.app[1] rcvdPkLifetime:vector ETV
attr interpolationmode none
attr recordingmode vector
attr source dataAge(packetReceived)
attr title "received packet lifetime"
attr unit s
vector 79 WiredAndWirelessHostsWithAP.mobileServer1.app[1] rcvdPkSeqNo:vector ETV
attr interpolationmode none
attr recordingmode vector
attr source appPkSeqNo(packetReceived)
attr title "received packet sequence number"
vector 80 WiredAndWirelessHostsWithAP.mobileServer1.app[2] packetReceived:vector(packetBytes) ETV
attr interpolationmode none
attr recordingmode vector(packetBytes)
attr source packetReceived
attr title "packets received, packetBytes"
vector 81 WiredAndWirelessHostsWithAP.mobileServer1.app[2] throughput:vector ETV
attr recordingmode vector
attr source throughput(packetReceived)
attr title throughput
attr unit bps
vector 82 WiredAndWirelessHostsWithAP.mobileServer1.app[2] packetSent:vector(packetBytes) ETV
attr interpolationmode none
attr recordingmode vector(packetBytes)
attr source packetSent
attr title "packets sent, packetBytes"
vector 83 WiredAndWirelessHostsWithAP.mobileServer1.app[2] rcvdPkLifetime:vector ETV
attr interpolationmode none
attr recordingmode vector
attr source dataAge(packetReceived)
attr title "received packet lifetime"
attr unit s
vector 84 WiredAndWirelessHostsWithAP.mobileServer1.app[2] rcvdPkSeqNo:vector ETV
attr interpolationmode none
attr recordingmode vector
attr source appPkSeqNo(packetReceived)
attr title "received packet sequence number"
vector 85 WiredAndWirelessHostsWithAP.mobileServer2.lo[0].lo rcvdPkFromHl:vector(packetBytes) ETV
attr interpolationmode none
attr recordingmode vector(packetBytes)
attr source packetReceivedFromUpper
attr title "packets received from higher layer, packetBytes"
vector 86 WiredAndWirelessHostsWithAP.mobileServer2.lo[0].lo passedUpPk:vector(packetBytes) ETV
attr interpolationmode none
attr recordingmode vector(packetBytes)
attr source packetSentToUpper
attr title "packets passed to higher layer, packetBytes"
vector 87 WiredAndWirelessHostsWithAP.mobileServer2.lo[0] packetDropInterfaceDown:vector(packetBytes) ETV
attr interpolationmode none
attr recordingmode vector(packetBytes)
attr source packetDropReasonIsInterfaceDown(packetDropped)
attr title "packet drops: interface down, packetBytes"
vector 88 WiredAndWirelessHostsWithAP.mobileServer2.lo[0] packetDropNoCarrier:vector(packetBytes) ETV
attr interpolationmode none
attr recordingmode vector(packetBytes)
attr source packetDropReasonIsNoCarrier(packetDropped)
attr title "packet drops: no carrier, packetBytes"
vector 89 WiredAndWirelessHostsWithAP.mobileServer2.wlan[0].agent sentRequest:vector ETV
attr recordingmode vector
attr title "sent requests"
vector 90 WiredAndWirelessHostsWithAP.mobileServer2.wlan[0].agent acceptConfirm:vector ETV
attr recordingmode vector
attr title "accepted confirms"
vector 91 WiredAndWirelessHostsWithAP.mobileServer2.wlan[0].agent dropConfirm:vector ETV
attr recordingmode vector
attr title "dropped confirms"
vector 92 WiredAndWirelessHostsWithAP.mobileServer2.wlan[0].mac.dcf.channelAccess.pendingQueue queueLength:vector ETV
attr autoWarmupFilter false
attr interpolationmode sample-hold
attr recordingmode vector
attr source "warmup(atomic(constant0(packetPushEnded) + count(packetPushStarted) - count(packetPulled) - count(packetRemoved) - count(packetDropped)))"
attr title "queue length"
attr unit pk
vector 93 WiredAndWirelessHostsWithAP.mobileServer2.wlan[0].mac.dcf.channelAccess.pendingQueue queueBitLength:vector ETV
attr autoWarmupFilter false
attr interpolationmode sample-hold
attr recordingmode vector
attr source "warmup(atomic(constant0(packetPushEnded) + sum(packetLength(packetPushStarted)) - sum(packetLength(packetPulled)) - sum(packetLength(packetRemoved)) - sum(packetLength(packetDropped))))"
attr title "queue bit length"
attr unit b
vector 94 WiredAndWirelessHostsWithAP.mobileServer2.wlan[0].mac.dcf.channelAccess.pendingQueue queueingTime:vector ETV
attr interpolationmode none
attr recordingmode vector
attr source queueingTime(packetPulled)
attr title "queueing times"
attr unit s
vector 95 WiredAndWirelessHostsWithAP.mobileServer2.wlan[0].mac.dcf.channelAccess.pendingQueue incomingPacketLengths:vector ETV
attr interpolationmode none
attr recordingmode vector
attr source packetLength(packetPushStarted)
attr title "incoming packet lengths"
attr unit b
vector 96 WiredAndWirelessHostsWithAP.mobileServer2.wlan[0].mac.dcf.channelAccess.pendingQueue incomingDataRate:vector ETV
attr interpolationmode linear
attr recordingmode vector
attr source throughput(packetPushStarted)
attr title "incoming datarate"
attr unit bps
vector 97 WiredAndWirelessHostsWithAP.mobileServer2.wlan[0].mac.dcf.channelAccess.pendingQueue outgoingPacketLengths:vector ETV
attr interpolationmode none
attr recordingmode vector
attr source packetLength(packetPulled)
attr title "outgoing packet lengths"
attr unit b
vector 98 WiredAndWirelessHostsWithAP.mobileServer2.wlan[0].mac.dcf.channelAccess.pendingQueue outgoingDataRate:vector ETV
attr interpolationmode linear
attr recordingmode vector
attr source throughput(packetPulled)
attr title "outgoing datarate"
attr unit bps
vector 99 WiredAndWirelessHostsWithAP.mobileServer2.wlan[0].mac.dcf.channelAccess.pendingQueue droppedPacketLengthsQueueOverflow:vector ETV
attr interpolationmode none
attr recordingmode vector
attr source packetLength(packetDropReasonIsQueueOverflow(packetDropped))
attr title "dropped packet lengths: queue overflow"
attr unit b
vector 100 WiredAndWirelessHostsWithAP.mobileServer2.wlan[0].mac.dcf.channelAccess.pendingQueue flowQueueingTime:vector ETV
attr interpolationmode none
attr recordingmode vector
attr source queueingTime(demuxFlow(packetPulled))
attr title "flow queueing times"
attr unit s
vector 101 WiredAndWirelessHostsWithAP.mobileServer2.wlan[0].mac.dcf.channelAccess.pendingQueue flowIncomingDataRate:vector ETV
attr interpolationmode linear
attr recordingmode vector
attr source throughput(flowPacketLength(demuxFlow(packetPushStarted)))
attr title "flow specific incoming data rate"
attr unit bps
vector 102 WiredAndWirelessHostsWithAP.mobileServer2.wlan[0].mac.dcf.channelAccess.pendingQueue flowOutgoingDataRate:vector ETV
attr interpolationmode linear
attr recordingmode vector
attr source throughput(flowPacketLength(demuxFlow(packetPulled)))
attr title "flow specific outgoing data rate"
attr unit bps
vector 103 WiredAndWirelessHostsWithAP.mobileServer2.wlan[0].mac.dcf.channelAccess.inProgressFrames queueingTime:vector ETV
attr interpolationmode none
attr recordingmode vector
attr source queueingTime(packetDequeued)
attr title "queueing times"
vector 104 WiredAndWirelessHostsWithAP.mobileServer2.wlan[0].mac.dcf.channelAccess.inProgressFrames queueLength:vector ETV
attr autoWarmupFilter false
attr interpolationmode sample-hold
attr recordingmode vector
attr source "warmup(count(packetEnqueued) - count(packetDequeued))"
attr title "queue length"
vector 105 WiredAndWirelessHostsWithAP.mobileServer2.wlan[0].mac.dcf.channelAccess.contention backoffPeriodGenerated:vector ETV
attr interpolationmode none
attr recordingmode vector
attr title "backoff periods"
vector 106 WiredAndWirelessHostsWithAP.mobileServer2.wlan[0].mac.dcf.channelAccess.contention backoffActive:vector ETV
attr autoWarmupFilter false
attr interpolationmode sample-hold
attr recordingmode vector
attr source warmup(count(backoffStarted)-count(backoffStopped))
attr title "backoff active"
vector 107 WiredAndWirelessHostsWithAP.mobileServer2.wlan[0].mac.dcf.channelAccess.contention stateChanged:vector ETV
attr enum IDLE,DEFER,IFS_AND_BACKOFF
attr interpolationmode none
attr recordingmode vector
attr title "contention state changed"
attr type enum
vector 108 WiredAndWirelessHostsWithAP.mobileServer2.wlan[0].mac.dcf.recipientMacDataService packetDropDuplicateDetected:vector(packetBytes) ETV
attr interpolationmode none
attr recordingmode vector(packetBytes)
attr source packetDropReasonIsDuplicateDetected(packetDropped)
attr title "packet drops: duplicate detected, packetBytes"
vector 109 WiredAndWirelessHostsWithAP.mobileServer2.wlan[0].mac.dcf.recoveryProcedure contentionWindowChanged:vector ETV
attr interpolationmode sample-hold
attr recordingmode vector
attr title "contention window"
vector 110 WiredAndWirelessHostsWithAP.mobileServer2.wlan[0].mac.dcf packetSentToPeer:vector(packetBytes) ETV
attr interpolationmode none
attr recordingmode vector(packetBytes)
attr title "packets sent, packetBytes"
vector 111 WiredAndWirelessHostsWithAP.mobileServer2.wlan[0].mac.dcf packetSentToPeerUnicast:vector(packetBytes) ETV
attr interpolationmode none
attr recordingmode vector(packetBytes)
attr source ieee80211Unicast(packetSentToPeer)
attr title "packets sent: unicast, packetBytes"
vector 112 WiredAndWirelessHostsWithAP.mobileServer2.wlan[0].mac.dcf packetSentToPeerMulticast:vector(packetBytes) ETV
attr interpolationmode none
attr recordingmode vector(packetBytes)
attr source ieee80211Multicast(packetSentToPeer)
attr title "packets sent: multicast, packetBytes"
vector 113 WiredAndWirelessHostsWithAP.mobileServer2.wlan[0].mac.dcf packetSentToPeerBroadcast:vector(packetBytes) ETV
attr interpolationmode none
attr recordingmode vector(packetBytes)
attr source ieee80211Broadcast(packetSentToPeer)
attr title "packets sent: broadcast , packetBytes"
vector 114 WiredAndWirelessHostsWithAP.mobileServer2.wlan[0].mac.dcf packetSentToPeerWithRetry:vector(packetBytes) ETV
attr interpolationmode none
attr recordingmode vector(packetBytes)
attr source ieee80211Retry(packetSentToPeer)
attr title "packets sent: with retry, packetBytes"
vector 115 WiredAndWirelessHostsWithAP.mobileServer2.wlan[0].mac.dcf packetSentToPeerWithoutRetry:vector(packetBytes) ETV
attr interpolationmode none
attr recordingmode vector(packetBytes)
attr source ieee80211NotRetry(packetSentToPeer)
attr title "packets sent: without retry, packetBytes"
vector 116 WiredAndWirelessHostsWithAP.mobileServer2.wlan[0].mac.dcf packetReceivedFromPeer:vector(packetBytes) ETV
attr interpolationmode none
attr recordingmode vector(packetBytes)
attr title "packets received, packetBytes"
vector 117 WiredAndWirelessHostsWithAP.mobileServer2.wlan[0].mac.dcf packetReceivedFromPeerUnicast:vector(packetBytes) ETV
attr interpolationmode none
attr recordingmode vector(packetBytes)
attr source ieee80211Unicast(packetReceivedFromPeer)
attr title "packets received: unicast, packetBytes"
vector 118 WiredAndWirelessHostsWithAP.mobileServer2.wlan[0].mac.dcf packetReceivedFromPeerMulticast:vector(packetBytes) ETV
attr interpolationmode none
attr recordingmode vector(packetBytes)
attr source ieee80211Multicast(packetReceivedFromPeer)
attr title "packets received: multicast, packetBytes"
vector 119 WiredAndWirelessHostsWithAP.mobileServer2.wlan[0].mac.dcf packetReceivedFromPeerBroadcast:vector(packetBytes) ETV
attr interpolationmode none
attr recordingmode vector(packetBytes)
attr source ieee80211Broadcast(packetReceivedFromPeer)
attr title "packets received: broadcast, packetBytes"
vector 120 WiredAndWirelessHostsWithAP.mobileServer2.wlan[0].mac.dcf packetReceivedFromPeerWithRetry:vector(packetBytes) ETV
attr interpolationmode none
attr recordingmode vector(packetBytes)
attr source ieee80211Retry(packetReceivedFromPeer)
attr title "packets received: with retry, packetBytes"
vector 121 WiredAndWirelessHostsWithAP.mobileServer2.wlan[0].mac.dcf packetReceivedFromPeerWithoutRetry:vector(packetBytes) ETV
attr interpolationmode none
attr recordingmode vector(packetBytes)
attr source ieee80211NotRetry(packetReceivedFromPeer)
attr title "packets received: without retry, packetBytes"
vector 122 WiredAndWirelessHostsWithAP.mobileServer2.wlan[0].mac.dcf packetDrop:vector(packetBytes) ETV
attr interpolationmode none
attr recordingmode vector(packetBytes)
attr source packetDropped
attr title "packet drops, packetBytes"
vector 123 WiredAndWirelessHostsWithAP.mobileServer2.wlan[0].mac.dcf packetDropNotAddressedToUs:vector(packetBytes) ETV
attr interpolationmode none
attr recordingmode vector(packetBytes)
attr source packetDropReasonIsNotAddressedToUs(packetDropped)
attr title "packet drops: not addressed to us, packetBytes"
vector 124 WiredAndWirelessHostsWithAP.mobileServer2.wlan[0].mac.dcf packetDropQueueOverflow:vector(packetBytes) ETV
attr interpolationmode none
attr recordingmode vector(packetBytes)
attr source packetDropReasonIsQueueOverflow(packetDropped)
attr title "packet drops: queue overflow, packetBytes"
vector 125 WiredAndWirelessHostsWithAP.mobileServer2.wlan[0].mac.dcf packetDropRetryLimitReached:vector(packetBytes) ETV
attr interpolationmode none
attr recordingmode vector(packetBytes)
attr source packetDropReasonIsRetryLimitReached(packetDropped)
attr title "packet drops: retry limit reached, packetBytes"
vector 126 WiredAndWirelessHostsWithAP.mobileServer2.wlan[0].mac.dcf frameSequenceActive:vector ETV
attr autoWarmupFilter false
attr interpolationmode sample-hold
attr recordingmode vector
attr source warmup(count(frameSequenceStarted)-count(frameSequenceFinished))
attr title "frame sequence active"
vector 127 WiredAndWirelessHostsWithAP.mobileServer2.wlan[0].mac.dcf datarateSelected:vector ETV
attr interpolationmode none
attr recordingmode vector
attr title "datarates selected"
vector 128 WiredAndWirelessHostsWithAP.mobileServer2.wlan[0].mac.rx nav:vector ETV
attr interpolationmode linear
attr recordingmode vector
attr source navChanged
attr title "network allocation vector"
vector 129 WiredAndWirelessHostsWithAP.mobileServer2.wlan[0].mac packetSentToUpper:vector(packetBytes) ETV
attr interpolationmode none
attr recordingmode vector(packetBytes)
attr title "packets sent to upper layer, packetBytes"
vector 130 WiredAndWirelessHostsWithAP.mobileServer2.wlan[0].mac packetSentToLower:vector(packetBytes) ETV
attr interpolationmode none
attr recordingmode vector(packetBytes)
attr title "packets sent to lower layer, packetBytes"
vector 131 WiredAndWirelessHostsWithAP.mobileServer2.wlan[0].mac packetReceivedFromUpper:vector(packetBytes) ETV
attr interpolationmode none
attr recordingmode vector(packetBytes)
attr title "packets received from upper layer, packetBytes"
vector 132 WiredAndWirelessHostsWithAP.mobileServer2.wlan[0].mac packetReceivedFromLower:vector(packetBytes) ETV
attr interpolationmode none
attr recordingmode vector(packetBytes)
attr title "packets received from lower layer, packetBytes"
vector 133 WiredAndWirelessHostsWithAP.mobileServer2.wlan[0].mac packetDrop:vector(packetBytes) ETV
attr interpolationmode none
attr recordingmode vector(packetBytes)
attr source packetDropped
attr title "packet drops, packetBytes"
vector 134 WiredAndWirelessHostsWithAP.mobileServer2.wlan[0].mac packetDropIncorrectlyReceived:vector(packetBytes) ETV
attr interpolationmode none
attr recordingmode vector(packetBytes)
attr source packetDropReasonIsIncorrectlyReceived(packetDropped)
attr title "packet drops: incorrectly received, packetBytes"
vector 135 WiredAndWirelessHostsWithAP.mobileServer2.wlan[0].mac packetDropNotAddressedToUs:vector(packetBytes) ETV
attr interpolationmode none
attr recordingmode vector(packetBytes)
attr source packetDropReasonIsNotAddressedToUs(packetDropped)
attr title "packet drops: not addressed to us, packetBytes"
vector 136 WiredAndWirelessHostsWithAP.mobileServer2.wlan[0].mac packetDropQueueOverflow:vector(packetBytes) ETV
attr interpolationmode none
attr recordingmode vector(packetBytes)
attr source packetDropReasonIsQueueOverflow(packetDropped)
attr title "packet drops: queue overflow, packetBytes"
vector 137 WiredAndWirelessHostsWithAP.mobileServer2.wlan[0].mac packetDropRetryLimitReached:vector(packetBytes) ETV
attr interpolationmode none
attr recordingmode vector(packetBytes)
attr source packetDropReasonIsRetryLimitReached(packetDropped)
attr title "packet drops: retry limit reached, packetBytes"
vector 138 WiredAndWirelessHostsWithAP.mobileServer2.wlan[0].mac packetDropDuplicateDetected:vector(packetBytes) ETV
attr interpolationmode none
attr recordingmode vector(packetBytes)
attr source packetDropReasonIsDuplicateDetected(packetDropped)
attr title "packet drops: duplicate detected, packetBytes"
vector 139 WiredAndWirelessHostsWithAP.mobileServer2.wlan[0].mac packetDropOther:vector(packetBytes) ETV
attr interpolationmode none
attr recordingmode vector(packetBytes)
attr source packetDropReasonIsOther(packetDropped)
attr title "packet drops: other, packetBytes"
vector 140 WiredAndWirelessHostsWithAP.mobileServer2.wlan[0].radio radioMode:vector ETV
attr interpolationmode sample-hold
attr recordingmode vector
attr source radioModeChanged
attr title "Radio mode"
vector 141 WiredAndWirelessHostsWithAP.mobileServer2.wlan[0].radio receptionState:vector ETV
attr interpolationmode sample-hold
attr recordingmode vector
attr source receptionStateChanged
attr title "Radio reception state"
vector 142 WiredAndWirelessHostsWithAP.mobileServer2.wlan[0].radio transmissionState:vector ETV
attr interpolationmode sample-hold
attr recordingmode vector
attr source transmissionStateChanged
attr title "Radio transmission state"
vector 143 WiredAndWirelessHostsWithAP.mobileServer2.wlan[0].radio radioChannel:vector ETV
attr interpolationmode sample-hold
attr recordingmode vector
attr source radioChannelChanged
attr title "Radio channel"
vector 144 WiredAndWirelessHostsWithAP.mobileServer2.wlan[0] packetDropInterfaceDown:vector(packetBytes) ETV
attr interpolationmode none
attr recordingmode vector(packetBytes)
attr source packetDropReasonIsInterfaceDown(packetDropped)
attr title "packet drops: interface down, packetBytes"
vector 145 WiredAndWirelessHostsWithAP.mobileServer2.wlan[0] packetDropNoCarrier:vector(packetBytes) ETV
attr interpolationmode none
attr recordingmode vector(packetBytes)
attr source packetDropReasonIsNoCarrier(packetDropped)
attr title "packet drops: no carrier, packetBytes"
vector 146 WiredAndWirelessHostsWithAP.mobileServer2.ipv4.ip packetDropAddressResolutionFailed:vector(packetBytes) ETV
attr interpolationmode none
attr recordingmode vector(packetBytes)
attr source packetDropReasonIsAddressResolutionFailed(packetDropped)
attr title "packet drop: address resolution failed, packetBytes"
vector 147 WiredAndWirelessHostsWithAP.mobileServer2.ipv4.ip packetDropHopLimitReached:vector(packetBytes) ETV
attr interpolationmode none
attr recordingmode vector(packetBytes)
attr source packetDropReasonIsHopLimitReached(packetDropped)
attr title "packet drop: hop limit reached, packetBytes"
vector 148 WiredAndWirelessHostsWithAP.mobileServer2.ipv4.ip packetDropForwardingDisabled:vector(packetBytes) ETV
attr interpolationmode none
attr recordingmode vector(packetBytes)
attr source packetDropReasonIsForwardingDisabled(packetDropped)
attr title "packet drop: forwarding disabled, packetBytes"
vector 149 WiredAndWirelessHostsWithAP.mobileServer2.ipv4.ip packetDropNoInterfaceFound:vector(packetBytes) ETV
attr interpolationmode none
attr recordingmode vector(packetBytes)
attr source packetDropReasonIsNoInterfaceFound(packetDropped)
attr title "packet drop: no interface found, packetBytes"
vector 150 WiredAndWirelessHostsWithAP.mobileServer2.ipv4.ip packetDropNoRouteFound:vector(packetBytes) ETV
attr interpolationmode none
attr recordingmode vector(packetBytes)
attr source packetDropReasonIsNoRouteFound(packetDropped)
attr title "packet drop: no route found, packetBytes"
vector 151 WiredAndWirelessHostsWithAP.mobileServer2.ipv4.ip packetDropUndefined:vector(packetBytes) ETV
attr interpolationmode none
attr recordingmode vector(packetBytes)
attr source packetDropReasonIsUndefined(packetDropped)
attr title "packet drop: undefined, packetBytes"
vector 152 WiredAndWirelessHostsWithAP.mobileServer2.ipv4.arp arpRequestSent:vector(packetBytes) ETV
attr recordingmode vector(packetBytes)
attr source arpRequestSent
attr title "ARP request sent, packetBytes"
vector 153 WiredAndWirelessHostsWithAP.mobileServer2.ipv4.arp arpReplySent:vector(packetBytes) ETV
attr recordingmode vector(packetBytes)
attr source arpReplySent
attr title "ARP replies sent, packetBytes"
vector 154 WiredAndWirelessHostsWithAP.mobileServer2.udp packetSent:vector(packetBytes) ETV
attr interpolationmode none
attr recordingmode vector(packetBytes)
attr source packetSent
attr title "packets sent, packetBytes"
vector 155 WiredAndWirelessHostsWithAP.mobileServer2.udp packetReceived:vector(packetBytes) ETV
attr interpolationmode none
attr recordingmode vector(packetBytes)
attr source packetReceived
attr title "packets received, packetBytes"
vector 156 WiredAndWirelessHostsWithAP.mobileServer2.udp passedUpPk:vector(count) ETV
attr interpolationmode none
attr recordingmode vector(count)
attr source packetSentToUpper
attr title "packets passed up, count"
vector 157 WiredAndWirelessHostsWithAP.mobileServer2.udp droppedPkWrongPort:vector(count) ETV
attr interpolationmode none
attr recordingmode vector(count)
attr source packetDropReasonIsNoPortFound(packetDropped)
attr title "packets dropped (wrong port), count"
vector 158 WiredAndWirelessHostsWithAP.mobileServer2.udp droppedPkBadChecksum:vector(count) ETV
attr interpolationmode none
attr recordingmode vector(count)
attr source packetDropReasonIsIncorrectlyReceived(packetDropped)
attr title "packets dropped (checksum error), count"
vector 159 WiredAndWirelessHostsWithAP.mobileServer2.app[0] echoedPk:vector(packetBytes) ETV
attr interpolationmode none
attr recordingmode vector(packetBytes)
attr source packetSent
attr title "packets echoed, packetBytes"
vector 160 WiredAndWirelessHostsWithAP.mobileServer2.app[1] packetReceived:vector(packetBytes) ETV
attr interpolationmode none
attr recordingmode vector(packetBytes)
attr source packetReceived
attr title "packets received, packetBytes"
vector 161 WiredAndWirelessHostsWithAP.mobileServer2.app[1] throughput:vector ETV
attr recordingmode vector
attr source throughput(packetReceived)
attr title throughput
attr unit bps
vector 162 WiredAndWirelessHostsWithAP.mobileServer2.app[1] packetSent:vector(packetBytes) ETV
attr interpolationmode none
attr recordingmode vector(packetBytes)
attr source packetSent
attr title "packets sent, packetBytes"
vector 163 WiredAndWirelessHostsWithAP.mobileServer2.app[1] rcvdPkLifetime:vector ETV
attr interpolationmode none
attr recordingmode vector
attr source dataAge(packetReceived)
attr title "received packet lifetime"
attr unit s
vector 164 WiredAndWirelessHostsWithAP.mobileServer2.app[1] rcvdPkSeqNo:vector ETV
attr interpolationmode none
attr recordingmode vector
attr source appPkSeqNo(packetReceived)
attr title "received packet sequence number"
vector 165 WiredAndWirelessHostsWithAP.mobileServer2.app[2] packetReceived:vector(packetBytes) ETV
attr interpolationmode none
attr recordingmode vector(packetBytes)
attr source packetReceived
attr title "packets received, packetBytes"
vector 166 WiredAndWirelessHostsWithAP.mobileServer2.app[2] throughput:vector ETV
attr recordingmode vector
attr source throughput(packetReceived)
attr title throughput
attr unit bps
vector 167 WiredAndWirelessHostsWithAP.mobileServer2.app[2] packetSent:vector(packetBytes) ETV
attr interpolationmode none
attr recordingmode vector(packetBytes)
attr source packetSent
attr title "packets sent, packetBytes"
vector 168 WiredAndWirelessHostsWithAP.mobileServer2.app[2] rcvdPkLifetime:vector ETV
attr interpolationmode none
attr recordingmode vector
attr source dataAge(packetReceived)
attr title "received packet lifetime"
attr unit s
vector 169 WiredAndWirelessHostsWithAP.mobileServer2.app[2] rcvdPkSeqNo:vector ETV
attr interpolationmode none
attr recordingmode vector
attr source appPkSeqNo(packetReceived)
attr title "received packet sequence number"
vector 170 WiredAndWirelessHostsWithAP.mobileServer3.lo[0].lo rcvdPkFromHl:vector(packetBytes) ETV
attr interpolationmode none
attr recordingmode vector(packetBytes)
attr source packetReceivedFromUpper
attr title "packets received from higher layer, packetBytes"
vector 171 WiredAndWirelessHostsWithAP.mobileServer3.lo[0].lo passedUpPk:vector(packetBytes) ETV
attr interpolationmode none
attr recordingmode vector(packetBytes)
attr source packetSentToUpper
attr title "packets passed to higher layer, packetBytes"
vector 172 WiredAndWirelessHostsWithAP.mobileServer3.lo[0] packetDropInterfaceDown:vector(packetBytes) ETV
attr interpolationmode none
attr recordingmode vector(packetBytes)
attr source packetDropReasonIsInterfaceDown(packetDropped)
attr title "packet drops: interface down, packetBytes"
vector 173 WiredAndWirelessHostsWithAP.mobileServer3.lo[0] packetDropNoCarrier:vector(packetBytes) ETV
attr interpolationmode none
attr recordingmode vector(packetBytes)
attr source packetDropReasonIsNoCarrier(packetDropped)
attr title "packet drops: no carrier, packetBytes"
vector 174 WiredAndWirelessHostsWithAP.mobileServer3.wlan[0].agent sentRequest:vector ETV
attr recordingmode vector
attr title "sent requests"
vector 175 WiredAndWirelessHostsWithAP.mobileServer3.wlan[0].agent acceptConfirm:vector ETV
attr recordingmode vector
attr title "accepted confirms"
vector 176 WiredAndWirelessHostsWithAP.mobileServer3.wlan[0].agent dropConfirm:vector ETV
attr recordingmode vector
attr title "dropped confirms"
vector 177 WiredAndWirelessHostsWithAP.mobileServer3.wlan[0].mac.dcf.channelAccess.pendingQueue queueLength:vector ETV
attr autoWarmupFilter false
attr interpolationmode sample-hold
attr recordingmode vector
attr source "warmup(atomic(constant0(packetPushEnded) + count(packetPushStarted) - count(packetPulled) - count(packetRemoved) - count(packetDropped)))"
attr title "queue length"
attr unit pk
vector 178 WiredAndWirelessHostsWithAP.mobileServer3.wlan[0].mac.dcf.channelAccess.pendingQueue queueBitLength:vector ETV
attr autoWarmupFilter false
attr interpolationmode sample-hold
attr recordingmode vector
attr source "warmup(atomic(constant0(packetPushEnded) + sum(packetLength(packetPushStarted)) - sum(packetLength(packetPulled)) - sum(packetLength(packetRemoved)) - sum(packetLength(packetDropped))))"
attr title "queue bit length"
attr unit b
vector 179 WiredAndWirelessHostsWithAP.mobileServer3.wlan[0].mac.dcf.channelAccess.pendingQueue queueingTime:vector ETV
attr interpolationmode none
attr recordingmode vector
attr source queueingTime(packetPulled)
attr title "queueing times"
attr unit s
vector 180 WiredAndWirelessHostsWithAP.mobileServer3.wlan[0].mac.dcf.channelAccess.pendingQueue incomingPacketLengths:vector ETV
attr interpolationmode none
attr recordingmode vector
attr source packetLength(packetPushStarted)
attr title "incoming packet lengths"
attr unit b
vector 181 WiredAndWirelessHostsWithAP.mobileServer3.wlan[0].mac.dcf.channelAccess.pendingQueue incomingDataRate:vector ETV
attr interpolationmode linear
attr recordingmode vector
attr source throughput(packetPushStarted)
attr title "incoming datarate"
attr unit bps
vector 182 WiredAndWirelessHostsWithAP.mobileServer3.wlan[0].mac.dcf.channelAccess.pendingQueue outgoingPacketLengths:vector ETV
attr interpolationmode none
attr recordingmode vector
attr source packetLength(packetPulled)
attr title "outgoing packet lengths"
attr unit b
vector 183 WiredAndWirelessHostsWithAP.mobileServer3.wlan[0].mac.dcf.channelAccess.pendingQueue outgoingDataRate:vector ETV
attr interpolationmode linear
attr recordingmode vector
attr source throughput(packetPulled)
attr title "outgoing datarate"
attr unit bps
vector 184 WiredAndWirelessHostsWithAP.mobileServer3.wlan[0].mac.dcf.channelAccess.pendingQueue droppedPacketLengthsQueueOverflow:vector ETV
attr interpolationmode none
attr recordingmode vector
attr source packetLength(packetDropReasonIsQueueOverflow(packetDropped))
attr title "dropped packet lengths: queue overflow"
attr unit b
vector 185 WiredAndWirelessHostsWithAP.mobileServer3.wlan[0].mac.dcf.channelAccess.pendingQueue flowQueueingTime:vector ETV
attr interpolationmode none
attr recordingmode vector
attr source queueingTime(demuxFlow(packetPulled))
attr title "flow queueing times"
attr unit s
vector 186 WiredAndWirelessHostsWithAP.mobileServer3.wlan[0].mac.dcf.channelAccess.pendingQueue flowIncomingDataRate:vector ETV
attr interpolationmode linear
attr recordingmode vector
attr source throughput(flowPacketLength(demuxFlow(packetPushStarted)))
attr title "flow specific incoming data rate"
attr unit bps
vector 187 WiredAndWirelessHostsWithAP.mobileServer3.wlan[0].mac.dcf.channelAccess.pendingQueue flowOutgoingDataRate:vector ETV
attr interpolationmode linear
attr recordingmode vector
attr source throughput(flowPacketLength(demuxFlow(packetPulled)))
attr title "flow specific outgoing data rate"
attr unit bps
vector 188 WiredAndWirelessHostsWithAP.mobileServer3.wlan[0].mac.dcf.channelAccess.inProgressFrames queueingTime:vector ETV
attr interpolationmode none
attr recordingmode vector
attr source queueingTime(packetDequeued)
attr title "queueing times"
vector 189 WiredAndWirelessHostsWithAP.mobileServer3.wlan[0].mac.dcf.channelAccess.inProgressFrames queueLength:vector ETV
attr autoWarmupFilter false
attr interpolationmode sample-hold
attr recordingmode vector
attr source "warmup(count(packetEnqueued) - count(packetDequeued))"
attr title "queue length"
vector 190 WiredAndWirelessHostsWithAP.mobileServer3.wlan[0].mac.dcf.channelAccess.contention backoffPeriodGenerated:vector ETV
attr interpolationmode none
attr recordingmode vector
attr title "backoff periods"
vector 191 WiredAndWirelessHostsWithAP.mobileServer3.wlan[0].mac.dcf.channelAccess.contention backoffActive:vector ETV
attr autoWarmupFilter false
attr interpolationmode sample-hold
attr recordingmode vector
attr source warmup(count(backoffStarted)-count(backoffStopped))
attr title "backoff active"
vector 192 WiredAndWirelessHostsWithAP.mobileServer3.wlan[0].mac.dcf.channelAccess.contention stateChanged:vector ETV
attr enum IDLE,DEFER,IFS_AND_BACKOFF
attr interpolationmode none
attr recordingmode vector
attr title "contention state changed"
attr type enum
vector 193 WiredAndWirelessHostsWithAP.mobileServer3.wlan[0].mac.dcf.recipientMacDataService packetDropDuplicateDetected:vector(packetBytes) ETV
attr interpolationmode none
attr recordingmode vector(packetBytes)
attr source packetDropReasonIsDuplicateDetected(packetDropped)
attr title "packet drops: duplicate detected, packetBytes"
vector 194 WiredAndWirelessHostsWithAP.mobileServer3.wlan[0].mac.dcf.recoveryProcedure contentionWindowChanged:vector ETV
attr interpolationmode sample-hold
attr recordingmode vector
attr title "contention window"
vector 195 WiredAndWirelessHostsWithAP.mobileServer3.wlan[0].mac.dcf packetSentToPeer:vector(packetBytes) ETV
attr interpolationmode none
attr recordingmode vector(packetBytes)
attr title "packets sent, packetBytes"
vector 196 WiredAndWirelessHostsWithAP.mobileServer3.wlan[0].mac.dcf packetSentToPeerUnicast:vector(packetBytes) ETV
attr interpolationmode none
attr recordingmode vector(packetBytes)
attr source ieee80211Unicast(packetSentToPeer)
attr title "packets sent: unicast, packetBytes"
vector 197 WiredAndWirelessHostsWithAP.mobileServer3.wlan[0].mac.dcf packetSentToPeerMulticast:vector(packetBytes) ETV
attr interpolationmode none
attr recordingmode vector(packetBytes)
attr source ieee80211Multicast(packetSentToPeer)
attr title "packets sent: multicast, packetBytes"
vector 198 WiredAndWirelessHostsWithAP.mobileServer3.wlan[0].mac.dcf packetSentToPeerBroadcast:vector(packetBytes) ETV
attr interpolationmode none
attr recordingmode vector(packetBytes)
attr source ieee80211Broadcast(packetSentToPeer)
attr title "packets sent: broadcast , packetBytes"
vector 199 WiredAndWirelessHostsWithAP.mobileServer3.wlan[0].mac.dcf packetSentToPeerWithRetry:vector(packetBytes) ETV
attr interpolationmode none
attr recordingmode vector(packetBytes)
attr source ieee80211Retry(packetSentToPeer)
attr title "packets sent: with retry, packetBytes"
vector 200 WiredAndWirelessHostsWithAP.mobileServer3.wlan[0].mac.dcf packetSentToPeerWithoutRetry:vector(packetBytes) ETV
attr interpolationmode none
attr recordingmode vector(packetBytes)
attr source ieee80211NotRetry(packetSentToPeer)
attr title "packets sent: without retry, packetBytes"
vector 201 WiredAndWirelessHostsWithAP.mobileServer3.wlan[0].mac.dcf packetReceivedFromPeer:vector(packetBytes) ETV
attr interpolationmode none
attr recordingmode vector(packetBytes)
attr title "packets received, packetBytes"
vector 202 WiredAndWirelessHostsWithAP.mobileServer3.wlan[0].mac.dcf packetReceivedFromPeerUnicast:vector(packetBytes) ETV
attr interpolationmode none
attr recordingmode vector(packetBytes)
attr source ieee80211Unicast(packetReceivedFromPeer)
attr title "packets received: unicast, packetBytes"
vector 203 WiredAndWirelessHostsWithAP.mobileServer3.wlan[0].mac.dcf packetReceivedFromPeerMulticast:vector(packetBytes) ETV
attr interpolationmode none
attr recordingmode vector(packetBytes)
attr source ieee80211Multicast(packetReceivedFromPeer)
attr title "packets received: multicast, packetBytes"
vector 204 WiredAndWirelessHostsWithAP.mobileServer3.wlan[0].mac.dcf packetReceivedFromPeerBroadcast:vector(packetBytes) ETV
attr interpolationmode none
attr recordingmode vector(packetBytes)
attr source ieee80211Broadcast(packetReceivedFromPeer)
attr title "packets received: broadcast, packetBytes"
vector 205 WiredAndWirelessHostsWithAP.mobileServer3.wlan[0].mac.dcf packetReceivedFromPeerWithRetry:vector(packetBytes) ETV
attr interpolationmode none
attr recordingmode vector(packetBytes)
attr source ieee80211Retry(packetReceivedFromPeer)
attr title "packets received: with retry, packetBytes"
vector 206 WiredAndWirelessHostsWithAP.mobileServer3.wlan[0].mac.dcf packetReceivedFromPeerWithoutRetry:vector(packetBytes) ETV
attr interpolationmode none
attr recordingmode vector(packetBytes)
attr source ieee80211NotRetry(packetReceivedFromPeer)
attr title "packets received: without retry, packetBytes"
vector 207 WiredAndWirelessHostsWithAP.mobileServer3.wlan[0].mac.dcf packetDrop:vector(packetBytes) ETV
attr interpolationmode none
attr recordingmode vector(packetBytes)
attr source packetDropped
attr title "packet drops, packetBytes"
vector 208 WiredAndWirelessHostsWithAP.mobileServer3.wlan[0].mac.dcf packetDropNotAddressedToUs:vector(packetBytes) ETV
attr interpolationmode none
attr recordingmode vector(packetBytes)
attr source packetDropReasonIsNotAddressedToUs(packetDropped)
attr title "packet drops: not addressed to us, packetBytes"
vector 209 WiredAndWirelessHostsWithAP.mobileServer3.wlan[0].mac.dcf packetDropQueueOverflow:vector(packetBytes) ETV
attr interpolationmode none
attr recordingmode vector(packetBytes)
attr source packetDropReasonIsQueueOverflow(packetDropped)
attr title "packet drops: queue overflow, packetBytes"
vector 210 WiredAndWirelessHostsWithAP.mobileServer3.wlan[0].mac.dcf packetDropRetryLimitReached:vector(packetBytes) ETV
attr interpolationmode none
attr recordingmode vector(packetBytes)
attr source packetDropReasonIsRetryLimitReached(packetDropped)
attr title "packet drops: retry limit reached, packetBytes"
vector 211 WiredAndWirelessHostsWithAP.mobileServer3.wlan[0].mac.dcf frameSequenceActive:vector ETV
attr autoWarmupFilter false
attr interpolationmode sample-hold
attr recordingmode vector
attr source warmup(count(frameSequenceStarted)-count(frameSequenceFinished))
attr title "frame sequence active"
vector 212 WiredAndWirelessHostsWithAP.mobileServer3.wlan[0].mac.dcf datarateSelected:vector ETV
attr interpolationmode none
attr recordingmode vector
attr title "datarates selected"
vector 213 WiredAndWirelessHostsWithAP.mobileServer3.wlan[0].mac.rx nav:vector ETV
attr interpolationmode linear
attr recordingmode vector
attr source navChanged
attr title "network allocation vector"
vector 214 WiredAndWirelessHostsWithAP.mobileServer3.wlan[0].mac packetSentToUpper:vector(packetBytes) ETV
attr interpolationmode none
attr recordingmode vector(packetBytes)
attr title "packets sent to upper layer, packetBytes"
vector 215 WiredAndWirelessHostsWithAP.mobileServer3.wlan[0].mac packetSentToLower:vector(packetBytes) ETV
attr interpolationmode none
attr recordingmode vector(packetBytes)
attr title "packets sent to lower layer, packetBytes"
vector 216 WiredAndWirelessHostsWithAP.mobileServer3.wlan[0].mac packetReceivedFromUpper:vector(packetBytes) ETV
attr interpolationmode none
attr recordingmode vector(packetBytes)
attr title "packets received from upper layer, packetBytes"
vector 217 WiredAndWirelessHostsWithAP.mobileServer3.wlan[0].mac packetReceivedFromLower:vector(packetBytes) ETV
attr interpolationmode none
attr recordingmode vector(packetBytes)
attr title "packets received from lower layer, packetBytes"
vector 218 WiredAndWirelessHostsWithAP.mobileServer3.wlan[0].mac packetDrop:vector(packetBytes) ETV
attr interpolationmode none
attr recordingmode vector(packetBytes)
attr source packetDropped
attr title "packet drops, packetBytes"
vector 219 WiredAndWirelessHostsWithAP.mobileServer3.wlan[0].mac packetDropIncorrectlyReceived:vector(packetBytes) ETV
attr interpolationmode none
attr recordingmode vector(packetBytes)
attr source packetDropReasonIsIncorrectlyReceived(packetDropped)
attr title "packet drops: incorrectly received, packetBytes"
vector 220 WiredAndWirelessHostsWithAP.mobileServer3.wlan[0].mac packetDropNotAddressedToUs:vector(packetBytes) ETV
attr interpolationmode none
attr recordingmode vector(packetBytes)
attr source packetDropReasonIsNotAddressedToUs(packetDropped)
attr title "packet drops: not addressed to us, packetBytes"
vector 221 WiredAndWirelessHostsWithAP.mobileServer3.wlan[0].mac packetDropQueueOverflow:vector(packetBytes) ETV
attr interpolationmode none
attr recordingmode vector(packetBytes)
attr source packetDropReasonIsQueueOverflow(packetDropped)
attr title "packet drops: queue overflow, packetBytes"
vector 222 WiredAndWirelessHostsWithAP.mobileServer3.wlan[0].mac packetDropRetryLimitReached:vector(packetBytes) ETV
attr interpolationmode none
attr recordingmode vector(packetBytes)
attr source packetDropReasonIsRetryLimitReached(packetDropped)
attr title "packet drops: retry limit reached, packetBytes"
vector 223 WiredAndWirelessHostsWithAP.mobileServer3.wlan[0].mac packetDropDuplicateDetected:vector(packetBytes) ETV
attr interpolationmode none
attr recordingmode vector(packetBytes)
attr source packetDropReasonIsDuplicateDetected(packetDropped)
attr title "packet drops: duplicate detected, packetBytes"
vector 224 WiredAndWirelessHostsWithAP.mobileServer3.wlan[0].mac packetDropOther:vector(packetBytes) ETV
attr interpolationmode none
attr recordingmode vector(packetBytes)
attr source packetDropReasonIsOther(packetDropped)
attr title "packet drops: other, packetBytes"
vector 225 WiredAndWirelessHostsWithAP.mobileServer3.wlan[0].radio radioMode:vector ETV
attr interpolationmode sample-hold
attr recordingmode vector
attr source radioModeChanged
attr title "Radio mode"
vector 226 WiredAndWirelessHostsWithAP.mobileServer3.wlan[0].radio receptionState:vector ETV
attr interpolationmode sample-hold
attr recordingmode vector
attr source receptionStateChanged
attr title "Radio reception state"
vector 227 WiredAndWirelessHostsWithAP.mobileServer3.wlan[0].radio transmissionState:vector ETV
attr interpolationmode sample-hold
attr recordingmode vector
attr source transmissionStateChanged
attr title "Radio transmission state"
vector 228 WiredAndWirelessHostsWithAP.mobileServer3.wlan[0].radio radioChannel:vector ETV
attr interpolationmode sample-hold
attr recordingmode vector
attr source radioChannelChanged
attr title "Radio channel"
vector 229 WiredAndWirelessHostsWithAP.mobileServer3.wlan[0] packetDropInterfaceDown:vector(packetBytes) ETV
attr interpolationmode none
attr recordingmode vector(packetBytes)
attr source packetDropReasonIsInterfaceDown(packetDropped)
attr title "packet drops: interface down, packetBytes"
vector 230 WiredAndWirelessHostsWithAP.mobileServer3.wlan[0] packetDropNoCarrier:vector(packetBytes) ETV
attr interpolationmode none
attr recordingmode vector(packetBytes)
attr source packetDropReasonIsNoCarrier(packetDropped)
attr title "packet drops: no carrier, packetBytes"
vector 231 WiredAndWirelessHostsWithAP.mobileServer3.ipv4.ip packetDropAddressResolutionFailed:vector(packetBytes) ETV
attr interpolationmode none
attr recordingmode vector(packetBytes)
attr source packetDropReasonIsAddressResolutionFailed(packetDropped)
attr title "packet drop: address resolution failed, packetBytes"
vector 232 WiredAndWirelessHostsWithAP.mobileServer3.ipv4.ip packetDropHopLimitReached:vector(packetBytes) ETV
attr interpolationmode none
attr recordingmode vector(packetBytes)
attr source packetDropReasonIsHopLimitReached(packetDropped)
attr title "packet drop: hop limit reached, packetBytes"
vector 233 WiredAndWirelessHostsWithAP.mobileServer3.ipv4.ip packetDropForwardingDisabled:vector(packetBytes) ETV
attr interpolationmode none
attr recordingmode vector(packetBytes)
attr source packetDropReasonIsForwardingDisabled(packetDropped)
attr title "packet drop: forwarding disabled, packetBytes"
vector 234 WiredAndWirelessHostsWithAP.mobileServer3.ipv4.ip packetDropNoInterfaceFound:vector(packetBytes) ETV
attr interpolationmode none
attr recordingmode vector(packetBytes)
attr source packetDropReasonIsNoInterfaceFound(packetDropped)
attr title "packet drop: no interface found, packetBytes"
vector 235 WiredAndWirelessHostsWithAP.mobileServer3.ipv4.ip packetDropNoRouteFound:vector(packetBytes) ETV
attr interpolationmode none
attr recordingmode vector(packetBytes)
attr source packetDropReasonIsNoRouteFound(packetDropped)
attr title "packet drop: no route found, packetBytes"
vector 236 WiredAndWirelessHostsWithAP.mobileServer3.ipv4.ip packetDropUndefined:vector(packetBytes) ETV
attr interpolationmode none
attr recordingmode vector(packetBytes)
attr source packetDropReasonIsUndefined(packetDropped)
attr title "packet drop: undefined, packetBytes"
vector 237 WiredAndWirelessHostsWithAP.mobileServer3.ipv4.arp arpRequestSent:vector(packetBytes) ETV
attr recordingmode vector(packetBytes)
attr source arpRequestSent
attr title "ARP request sent, packetBytes"
vector 238 WiredAndWirelessHostsWithAP.mobileServer3.ipv4.arp arpReplySent:vector(packetBytes) ETV
attr recordingmode vector(packetBytes)
attr source arpReplySent
attr title "ARP replies sent, packetBytes"
vector 239 WiredAndWirelessHostsWithAP.mobileServer3.udp packetSent:vector(packetBytes) ETV
attr interpolationmode none
attr recordingmode vector(packetBytes)
attr source packetSent
attr title "packets sent, packetBytes"
vector 240 WiredAndWirelessHostsWithAP.mobileServer3.udp packetReceived:vector(packetBytes) ETV
attr interpolationmode none
attr recordingmode vector(packetBytes)
attr source packetReceived
attr title "packets received, packetBytes"
vector 241 WiredAndWirelessHostsWithAP.mobileServer3.udp passedUpPk:vector(count) ETV
attr interpolationmode none
attr recordingmode vector(count)
attr source packetSentToUpper
attr title "packets passed up, count"
vector 242 WiredAndWirelessHostsWithAP.mobileServer3.udp droppedPkWrongPort:vector(count) ETV
attr interpolationmode none
attr recordingmode vector(count)
attr source packetDropReasonIsNoPortFound(packetDropped)
attr title "packets dropped (wrong port), count"
vector 243 WiredAndWirelessHostsWithAP.mobileServer3.udp droppedPkBadChecksum:vector(count) ETV
attr interpolationmode none
attr recordingmode vector(count)
attr source packetDropReasonIsIncorrectlyReceived(packetDropped)
attr title "packets dropped (checksum error), count"
vector 244 WiredAndWirelessHostsWithAP.mobileServer3.app[0] echoedPk:vector(packetBytes) ETV
attr interpolationmode none
attr recordingmode vector(packetBytes)
attr source packetSent
attr title "packets echoed, packetBytes"
vector 245 WiredAndWirelessHostsWithAP.mobileServer3.app[1] packetReceived:vector(packetBytes) ETV
attr interpolationmode none
attr recordingmode vector(packetBytes)
attr source packetReceived
attr title "packets received, packetBytes"
vector 246 WiredAndWirelessHostsWithAP.mobileServer3.app[1] throughput:vector ETV
attr recordingmode vector
attr source throughput(packetReceived)
attr title throughput
attr unit bps
vector 247 WiredAndWirelessHostsWithAP.mobileServer3.app[1] packetSent:vector(packetBytes) ETV
attr interpolationmode none
attr recordingmode vector(packetBytes)
attr source packetSent
attr title "packets sent, packetBytes"
vector 248 WiredAndWirelessHostsWithAP.mobileServer3.app[1] rcvdPkLifetime:vector ETV
attr interpolationmode none
attr recordingmode vector
attr source dataAge(packetReceived)
attr title "received packet lifetime"
attr unit s
vector 249 WiredAndWirelessHostsWithAP.mobileServer3.app[1] rcvdPkSeqNo:vector ETV
attr interpolationmode none
attr recordingmode vector
attr source appPkSeqNo(packetReceived)
attr title "received packet sequence number"
vector 250 WiredAndWirelessHostsWithAP.mobileServer3.app[2] packetReceived:vector(packetBytes) ETV
attr interpolationmode none
attr recordingmode vector(packetBytes)
attr source packetReceived
attr title "packets received, packetBytes"
vector 251 WiredAndWirelessHostsWithAP.mobileServer3.app[2] throughput:vector ETV
attr recordingmode vector
attr source throughput(packetReceived)
attr title throughput
attr unit bps
vector 252 WiredAndWirelessHostsWithAP.mobileServer3.app[2] packetSent:vector(packetBytes) ETV
attr interpolationmode none
attr recordingmode vector(packetBytes)
attr source packetSent
attr title "packets sent, packetBytes"
vector 253 WiredAndWirelessHostsWithAP.mobileServer3.app[2] rcvdPkLifetime:vector ETV
attr interpolationmode none
attr recordingmode vector
attr source dataAge(packetReceived)
attr title "received packet lifetime"
attr unit s
vector 254 WiredAndWirelessHostsWithAP.mobileServer3.app[2] rcvdPkSeqNo:vector ETV
attr interpolationmode none
attr recordingmode vector
attr source appPkSeqNo(packetReceived)
attr title "received packet sequence number"
vector 255 WiredAndWirelessHostsWithAP.mobileServer4.lo[0].lo rcvdPkFromHl:vector(packetBytes) ETV
attr interpolationmode none
attr recordingmode vector(packetBytes)
attr source packetReceivedFromUpper
attr title "packets received from higher layer, packetBytes"
vector 256 WiredAndWirelessHostsWithAP.mobileServer4.lo[0].lo passedUpPk:vector(packetBytes) ETV
attr interpolationmode none
attr recordingmode vector(packetBytes)
attr source packetSentToUpper
attr title "packets passed to higher layer, packetBytes"
vector 257 WiredAndWirelessHostsWithAP.mobileServer4.lo[0] packetDropInterfaceDown:vector(packetBytes) ETV
attr interpolationmode none
attr recordingmode vector(packetBytes)
attr source packetDropReasonIsInterfaceDown(packetDropped)
attr title "packet drops: interface down, packetBytes"
vector 258 WiredAndWirelessHostsWithAP.mobileServer4.lo[0] packetDropNoCarrier:vector(packetBytes) ETV
attr interpolationmode none
attr recordingmode vector(packetBytes)
attr source packetDropReasonIsNoCarrier(packetDropped)
attr title "packet drops: no carrier, packetBytes"
vector 259 WiredAndWirelessHostsWithAP.mobileServer4.wlan[0].agent sentRequest:vector ETV
attr recordingmode vector
attr title "sent requests"
vector 260 WiredAndWirelessHostsWithAP.mobileServer4.wlan[0].agent acceptConfirm:vector ETV
attr recordingmode vector
attr title "accepted confirms"
vector 261 WiredAndWirelessHostsWithAP.mobileServer4.wlan[0].agent dropConfirm:vector ETV
attr recordingmode vector
attr title "dropped confirms"
vector 262 WiredAndWirelessHostsWithAP.mobileServer4.wlan[0].mac.dcf.channelAccess.pendingQueue queueLength:vector ETV
attr autoWarmupFilter false
attr interpolationmode sample-hold
attr recordingmode vector
attr source "warmup(atomic(constant0(packetPushEnded) + count(packetPushStarted) - count(packetPulled) - count(packetRemoved) - count(packetDropped)))"
attr title "queue length"
attr unit pk
vector 263 WiredAndWirelessHostsWithAP.mobileServer4.wlan[0].mac.dcf.channelAccess.pendingQueue queueBitLength:vector ETV
attr autoWarmupFilter false
attr interpolationmode sample-hold
attr recordingmode vector
attr source "warmup(atomic(constant0(packetPushEnded) + sum(packetLength(packetPushStarted)) - sum(packetLength(packetPulled)) - sum(packetLength(packetRemoved)) - sum(packetLength(packetDropped))))"
attr title "queue bit length"
attr unit b
vector 264 WiredAndWirelessHostsWithAP.mobileServer4.wlan[0].mac.dcf.channelAccess.pendingQueue queueingTime:vector ETV
attr interpolationmode none
attr recordingmode vector
attr source queueingTime(packetPulled)
attr title "queueing times"
attr unit s
vector 265 WiredAndWirelessHostsWithAP.mobileServer4.wlan[0].mac.dcf.channelAccess.pendingQueue incomingPacketLengths:vector ETV
attr interpolationmode none
attr recordingmode vector
attr source packetLength(packetPushStarted)
attr title "incoming packet lengths"
attr unit b
vector 266 WiredAndWirelessHostsWithAP.mobileServer4.wlan[0].mac.dcf.channelAccess.pendingQueue incomingDataRate:vector ETV
attr interpolationmode linear
attr recordingmode vector
attr source throughput(packetPushStarted)
attr title "incoming datarate"
attr unit bps
vector 267 WiredAndWirelessHostsWithAP.mobileServer4.wlan[0].mac.dcf.channelAccess.pendingQueue outgoingPacketLengths:vector ETV
attr interpolationmode none
attr recordingmode vector
attr source packetLength(packetPulled)
attr title "outgoing packet lengths"
attr unit b
vector 268 WiredAndWirelessHostsWithAP.mobileServer4.wlan[0].mac.dcf.channelAccess.pendingQueue outgoingDataRate:vector ETV
attr interpolationmode linear
attr recordingmode vector
attr source throughput(packetPulled)
attr title "outgoing datarate"
attr unit bps
vector 269 WiredAndWirelessHostsWithAP.mobileServer4.wlan[0].mac.dcf.channelAccess.pendingQueue droppedPacketLengthsQueueOverflow:vector ETV
attr interpolationmode none
attr recordingmode vector
attr source packetLength(packetDropReasonIsQueueOverflow(packetDropped))
attr title "dropped packet lengths: queue overflow"
attr unit b
vector 270 WiredAndWirelessHostsWithAP.mobileServer4.wlan[0].mac.dcf.channelAccess.pendingQueue flowQueueingTime:vector ETV
attr interpolationmode none
attr recordingmode vector
attr source queueingTime(demuxFlow(packetPulled))
attr title "flow queueing times"
attr unit s
vector 271 WiredAndWirelessHostsWithAP.mobileServer4.wlan[0].mac.dcf.channelAccess.pendingQueue flowIncomingDataRate:vector ETV
attr interpolationmode linear
attr recordingmode vector
attr source throughput(flowPacketLength(demuxFlow(packetPushStarted)))
attr title "flow specific incoming data rate"
attr unit bps
vector 272 WiredAndWirelessHostsWithAP.mobileServer4.wlan[0].mac.dcf.channelAccess.pendingQueue flowOutgoingDataRate:vector ETV
attr interpolationmode linear
attr recordingmode vector
attr source throughput(flowPacketLength(demuxFlow(packetPulled)))
attr title "flow specific outgoing data rate"
attr unit bps
vector 273 WiredAndWirelessHostsWithAP.mobileServer4.wlan[0].mac.dcf.channelAccess.inProgressFrames queueingTime:vector ETV
attr interpolationmode none
attr recordingmode vector
attr source queueingTime(packetDequeued)
attr title "queueing times"
vector 274 WiredAndWirelessHostsWithAP.mobileServer4.wlan[0].mac.dcf.channelAccess.inProgressFrames queueLength:vector ETV
attr autoWarmupFilter false
attr interpolationmode sample-hold
attr recordingmode vector
attr source "warmup(count(packetEnqueued) - count(packetDequeued))"
attr title "queue length"
vector 275 WiredAndWirelessHostsWithAP.mobileServer4.wlan[0].mac.dcf.channelAccess.contention backoffPeriodGenerated:vector ETV
attr interpolationmode none
attr recordingmode vector
attr title "backoff periods"
vector 276 WiredAndWirelessHostsWithAP.mobileServer4.wlan[0].mac.dcf.channelAccess.contention backoffActive:vector ETV
attr autoWarmupFilter false
attr interpolationmode sample-hold
attr recordingmode vector
attr source warmup(count(backoffStarted)-count(backoffStopped))
attr title "backoff active"
vector 277 WiredAndWirelessHostsWithAP.mobileServer4.wlan[0].mac.dcf.channelAccess.contention stateChanged:vector ETV
attr enum IDLE,DEFER,IFS_AND_BACKOFF
attr interpolationmode none
attr recordingmode vector
attr title "contention state changed"
attr type enum
vector 278 WiredAndWirelessHostsWithAP.mobileServer4.wlan[0].mac.dcf.recipientMacDataService packetDropDuplicateDetected:vector(packetBytes) ETV
attr interpolationmode none
attr recordingmode vector(packetBytes)
attr source packetDropReasonIsDuplicateDetected(packetDropped)
attr title "packet drops: duplicate detected, packetBytes"
vector 279 WiredAndWirelessHostsWithAP.mobileServer4.wlan[0].mac.dcf.recoveryProcedure contentionWindowChanged:vector ETV
attr interpolationmode sample-hold
attr recordingmode vector
attr title "contention window"
vector 280 WiredAndWirelessHostsWithAP.mobileServer4.wlan[0].mac.dcf packetSentToPeer:vector(packetBytes) ETV
attr interpolationmode none
attr recordingmode vector(packetBytes)
attr title "packets sent, packetBytes"
vector 281 WiredAndWirelessHostsWithAP.mobileServer4.wlan[0].mac.dcf packetSentToPeerUnicast:vector(packetBytes) ETV
attr interpolationmode none
attr recordingmode vector(packetBytes)
attr source ieee80211Unicast(packetSentToPeer)
attr title "packets sent: unicast, packetBytes"
vector 282 WiredAndWirelessHostsWithAP.mobileServer4.wlan[0].mac.dcf packetSentToPeerMulticast:vector(packetBytes) ETV
attr interpolationmode none
attr recordingmode vector(packetBytes)
attr source ieee80211Multicast(packetSentToPeer)
attr title "packets sent: multicast, packetBytes"
vector 283 WiredAndWirelessHostsWithAP.mobileServer4.wlan[0].mac.dcf packetSentToPeerBroadcast:vector(packetBytes) ETV
attr interpolationmode none
attr recordingmode vector(packetBytes)
attr source ieee80211Broadcast(packetSentToPeer)
attr title "packets sent: broadcast , packetBytes"
vector 284 WiredAndWirelessHostsWithAP.mobileServer4.wlan[0].mac.dcf packetSentToPeerWithRetry:vector(packetBytes) ETV
attr interpolationmode none
attr recordingmode vector(packetBytes)
attr source ieee80211Retry(packetSentToPeer)
attr title "packets sent: with retry, packetBytes"
vector 285 WiredAndWirelessHostsWithAP.mobileServer4.wlan[0].mac.dcf packetSentToPeerWithoutRetry:vector(packetBytes) ETV
attr interpolationmode none
attr recordingmode vector(packetBytes)
attr source ieee80211NotRetry(packetSentToPeer)
attr title "packets sent: without retry, packetBytes"
vector 286 WiredAndWirelessHostsWithAP.mobileServer4.wlan[0].mac.dcf packetReceivedFromPeer:vector(packetBytes) ETV
attr interpolationmode none
attr recordingmode vector(packetBytes)
attr title "packets received, packetBytes"
vector 287 WiredAndWirelessHostsWithAP.mobileServer4.wlan[0].mac.dcf packetReceivedFromPeerUnicast:vector(packetBytes) ETV
attr interpolationmode none
attr recordingmode vector(packetBytes)
attr source ieee80211Unicast(packetReceivedFromPeer)
attr title "packets received: unicast, packetBytes"
[...]
1325	707	0.653972394005	3
1325	716	0.654006394005	1
1325	726	0.654316393913	3
1325	732	0.654358393913	1
1325	741	0.654368393913	0
1325	749	0.654402393913	1
1325	762	0.654612393913	0
1325	769	0.654654393913	1
1325	786	0.654667507276	3
1325	795	0.654701507276	1
1325	805	0.654931507206	3
1325	811	0.654973507206	1
1325	820	0.654983507206	0
1325	828	0.655017507206	1
1325	839	0.655307507206	0
1325	846	0.655353507206	1
1325	859	0.655783507206	0
1325	866	0.655825507206	1
1325	879	0.655838619944	3
1325	888	0.655872619944	1
1325	905	0.657385816072	3
1325	912	0.657427816072	1
1325	920	0.657437816072	0
1325	929	0.657471816072	1
1325	940	0.657901816072	0
1325	947	0.657943816072	1
1325	961	0.657958076382	3
1325	971	0.657992076382	1
1325	981	0.658142076395	3
1325	988	0.658184076395	1
1325	996	0.658194076395	0
1325	1005	0.658228076395	1
1325	1016	0.658878076395	0
1325	1023	0.658920076395	1
1325	1041	0.658934336845	3
1325	1051	0.658968336845	1
1325	1061	0.659318336872	3
1325	1068	0.659360336872	1
1325	1076	0.659370336872	0
1325	1085	0.659404336872	1
1325	1096	0.659754336872	0
1325	1103	0.659796336872	1
1325	1117	0.659810597446	3
1325	1127	0.659844597446	1
1325	1184	0.754488317738	0
1325	1191	0.754534317738	1
1325	1212	0.854488317738	0
1325	1219	0.854534317738	1
1325	1239	0.954488317738	0
1325	1246	0.954534317738	1
1325	1339	1.000001881446	3
1325	1448	1.000051881446	1
1325	1500	1.000061881446	0
1325	1573	1.000095881446	1
1325	1613	1.000145881446	0
1325	1620	1.000195881446	1
1325	1636	1.000269644408	3
1325	1642	1.000319644408	1
1325	1674	1.000329644408	0
1325	1690	1.000363644408	1
1325	1700	1.000573644408	0
1325	1707	1.000631644408	1
1325	1722	1.000645407504	3
1325	1731	1.000679407504	1
1325	1740	1.001229407601	3
1325	1746	1.001311407601	1
1325	1757	1.001321407601	0
1325	1800	1.001355407601	1
1325	1892	1.001525407601	0
1325	1899	1.001607407601	1
1325	1916	1.001621171018	3
1325	1925	1.001655171018	1
1325	1932	1.001705171018	0
1325	1939	1.001787171018	1
1325	1958	1.001800934495	3
1325	1967	1.001834934495	1
1325	1974	1.002084934495	0
1325	1981	1.002134934495	1
1325	1995	1.002584934495	0
1325	2002	1.002642934495	1
1325	2019	1.002656698261	3
1325	2028	1.002690698261	1
1326	29	0.054488317738	1
1326	30	0.054488317738	2
1326	35	0.054534317738	1
1326	36	0.054534317738	0
1326	56	0.154488317738	1
1326	57	0.154488317738	2
1326	62	0.154534317738	1
1326	63	0.154534317738	0
1326	95	0.254488317738	1
1326	96	0.254488317738	2
1326	101	0.254534317738	1
1326	102	0.254534317738	0
1326	162	0.314726576627	1
1326	163	0.314726576627	2
1326	168	0.314772576627	1
1326	169	0.314772576627	0
1326	221	0.353489360318	1
1326	222	0.353489360318	2
1326	227	0.353535360318	1
1326	228	0.353535360318	0
1326	259	0.354488317738	1
1326	260	0.354488317738	2
1326	265	0.354534317738	1
1326	266	0.354534317738	0
1326	302	0.357713797067	1
1326	303	0.357713797067	2
1326	308	0.357759797067	1
1326	309	0.357759797067	0
1326	353	0.454488317738	1
1326	354	0.454488317738	2
1326	359	0.454534317738	1
1326	360	0.454534317738	0
1326	383	0.554488317738	1
1326	384	0.554488317738	2
1326	389	0.554534317738	1
1326	390	0.554534317738	0
1326	435	0.614610626658	1
1326	436	0.614610626658	2
1326	442	0.614644626658	1
1326	443	0.614644626658	0
1326	453	0.614834626658	1
1326	454	0.614834626658	2
1326	459	0.614876626658	1
1326	460	0.614876626658	0
1326	505	0.615486261184	1
1326	506	0.615486261184	2
1326	512	0.615520261184	1
1326	513	0.615520261184	0
1326	523	0.615850261184	1
1326	524	0.615850261184	2
1326	529	0.615892261184	1
1326	530	0.615892261184	0
1326	579	0.616521896051	1
1326	580	0.616521896051	2
1326	586	0.616555896051	1
1326	587	0.616555896051	0
1326	597	0.616945896051	1
1326	598	0.616945896051	2
1326	603	0.616987896051	1
1326	604	0.616987896051	0
1326	668	0.653333280271	1
1326	669	0.653333280271	2
1326	675	0.653367280271	1
1326	676	0.653367280271	0
1326	687	0.653917280271	1
1326	688	0.653917280271	2
1326	693	0.653959280271	1
1326	694	0.653959280271	0
1326	741	0.654368393913	1
1326	742	0.654368393913	2
1326	748	0.654402393913	1
1326	749	0.654402393913	0
1326	762	0.654612393913	1
1326	763	0.654612393913	2
1326	768	0.654654393913	1
1326	769	0.654654393913	0
1326	820	0.654983507206	1
1326	821	0.654983507206	2
1326	827	0.655017507206	1
1326	828	0.655017507206	0
1326	839	0.655307507206	1
1326	840	0.655307507206	2
1326	845	0.655353507206	1
1326	846	0.655353507206	0
1326	859	0.655783507206	1
1326	860	0.655783507206	2
1326	865	0.655825507206	1
1326	866	0.655825507206	0
1326	920	0.657437816072	1
1326	921	0.657437816072	2
1326	928	0.657471816072	1
1326	929	0.657471816072	0
1326	940	0.657901816072	1
1326	941	0.657901816072	2
1326	946	0.657943816072	1
1326	947	0.657943816072	0
1326	996	0.658194076395	1
1326	997	0.658194076395	2
1326	1004	0.658228076395	1
1326	1005	0.658228076395	0
1326	1016	0.658878076395	1
1326	1017	0.658878076395	2
1326	1022	0.658920076395	1
1326	1023	0.658920076395	0
1326	1076	0.659370336872	1
1326	1077	0.659370336872	2
1326	1084	0.659404336872	1
1326	1085	0.659404336872	0
1326	1096	0.659754336872	1
1326	1097	0.659754336872	2
1326	1102	0.659796336872	1
1326	1103	0.659796336872	0
1326	1184	0.754488317738	1
1326	1185	0.754488317738	2
1326	1190	0.754534317738	1
1326	1191	0.754534317738	0
1326	1212	0.854488317738	1
1326	1213	0.854488317738	2
1326	1218	0.854534317738	1
1326	1219	0.854534317738	0
1326	1239	0.954488317738	1
1326	1240	0.954488317738	2
1326	1245	0.954534317738	1
1326	1246	0.954534317738	0
1326	1500	1.000061881446	1
1326	1501	1.000061881446	2
1326	1572	1.000095881446	1
1326	1573	1.000095881446	0
1326	1613	1.000145881446	1
1326	1614	1.000145881446	2
1326	1619	1.000195881446	1
1326	1620	1.000195881446	0
1326	1674	1.000329644408	1
1326	1675	1.000329644408	2
1326	1689	1.000363644408	1
1326	1690	1.000363644408	0
1326	1700	1.000573644408	1
1326	1701	1.000573644408	2
1326	1706	1.000631644408	1
1326	1707	1.000631644408	0
1326	1757	1.001321407601	1
1326	1758	1.001321407601	2
1326	1799	1.001355407601	1
1326	1800	1.001355407601	0
1326	1892	1.001525407601	1
1326	1893	1.001525407601	2
1326	1898	1.001607407601	1
1326	1899	1.001607407601	0
1326	1932	1.001705171018	1
1326	1933	1.001705171018	2
1326	1938	1.001787171018	1
1326	1939	1.001787171018	0
1326	1974	1.002084934495	1
1326	1975	1.002084934495	2
1326	1980	1.002134934495	1
1326	1981	1.002134934495	0
1326	1995	1.002584934495	1
1326	1996	1.002584934495	2
1326	2001	1.002642934495	1
1326	2002	1.002642934495	0
1327	0	0	0
1330	0	0	0
1330	0	0	0
1330	0	0	0
1330	0	0	0
1330	0	0	0
1330	1456	1.000051881446	0
1330	1650	1.000319644408	0
1330	1752	1.001311407601	0
1331	0	0	0
1331	0	0	0
1331	0	0	0
1331	0	0	0
1331	0	0	0
1331	1456	1.000051881446	0
1331	1650	1.000319644408	0
1331	1752	1.001311407601	0
1332	1456	1.000051881446	0
1332	1650	1.000319644408	0
1332	1752	1.001311407601	0
1333	1456	1.000051881446	368
1333	1650	1.000319644408	368
1333	1752	1.001311407601	1168
1334	1456	0.1	0
1334	1456	0.2	0
1334	1456	0.3	0
1334	1456	0.4	0
1334	1456	0.5	0
1334	1456	0.6	0
1334	1456	0.7	0
1334	1456	0.8	0
1334	1456	0.9	0
1334	1456	1	0
1335	1456	1.000051881446	368
1335	1650	1.000319644408	368
1335	1752	1.001311407601	1168
1336	1456	0.1	0
1336	1456	0.2	0
1336	1456	0.3	0
1336	1456	0.4	0
1336	1456	0.5	0
1336	1456	0.6	0
1336	1456	0.7	0
1336	1456	0.8	0
1336	1456	0.9	0
1336	1456	1	0
1341	1469	1.000057641446	64
1341	1656	1.000325404408	64
1341	1762	1.001323727601	146
1342	1519	1.000063501446	64
1342	1589	1.00010833	146
1342	1604	1.00012161	146
1342	1678	1.000331264408	64
1342	1883	1.001469967601	146
1343	1519	1.000063501446	64
1343	1589	1.00010833	146
1343	1604	1.00012161	146
1343	1678	1.000331264408	64
1343	1883	1.001469967601	146
1346	1456	1.000051881446	46
1346	1650	1.000319644408	46
1346	1752	1.001311407601	146
1352	0	0	0
1352	0	0	0
1352	0	0	0
1352	0	0	0
1352	0	0	0
1352	1457	1.000051881446	0
1352	1651	1.000319644408	0
1353	0	0	0
1353	0	0	0
1353	0	0	0
1353	0	0	0
1353	0	0	0
1353	1457	1.000051881446	0
1353	1651	1.000319644408	0
1354	1457	1.000051881446	0
1354	1651	1.000319644408	0
1355	1457	1.000051881446	368
1355	1651	1.000319644408	368
1356	1457	0.1	0
1356	1457	0.2	0
1356	1457	0.3	0
1356	1457	0.4	0
1356	1457	0.5	0
1356	1457	0.6	0
1356	1457	0.7	0
1356	1457	0.8	0
1356	1457	0.9	0
1356	1457	1	0
1357	1457	1.000051881446	368
1357	1651	1.000319644408	368
1358	1457	0.1	0
1358	1457	0.2	0
1358	1457	0.3	0
1358	1457	0.4	0
1358	1457	0.5	0
1358	1457	0.6	0
1358	1457	0.7	0
1358	1457	0.8	0
1358	1457	0.9	0
1358	1457	1	0
1363	1470	1.000057641446	64
1363	1657	1.000325404408	64
1368	1457	1.000051881446	46
1368	1651	1.000319644408	46
1374	0	0	0
1374	0	0	0
1374	0	0	0
1374	0	0	0
1374	0	0	0
1374	1458	1.000051881446	0
1374	1652	1.000319644408	0
1375	0	0	0
1375	0	0	0
1375	0	0	0
1375	0	0	0
1375	0	0	0
1375	1458	1.000051881446	0
1375	1652	1.000319644408	0
1376	1458	1.000051881446	0
1376	1652	1.000319644408	0
1377	1458	1.000051881446	368
1377	1652	1.000319644408	368
1378	1458	0.1	0
1378	1458	0.2	0
1378	1458	0.3	0
1378	1458	0.4	0
1378	1458	0.5	0
1378	1458	0.6	0
1378	1458	0.7	0
1378	1458	0.8	0
1378	1458	0.9	0
1378	1458	1	0
1379	1458	1.000051881446	368
1379	1652	1.000319644408	368
1380	1458	0.1	0
1380	1458	0.2	0
1380	1458	0.3	0
1380	1458	0.4	0
1380	1458	0.5	0
1380	1458	0.6	0
1380	1458	0.7	0
1380	1458	0.8	0
1380	1458	0.9	0
1380	1458	1	0
1385	1471	1.000057641446	64
1385	1658	1.000325404408	64
1390	1458	1.000051881446	46
1390	1652	1.000319644408	46
11	2036	1.002759312626	2273029.8629091
13	2036	1.002759312626	1797549.1262801
76	2036	0.1	0
76	2036	0.2	0
76	2036	0.3	0
76	2036	0.4	0
76	2036	0.5	0
76	2036	0.6	0
76	2036	0.7	0
76	2036	0.8	0
76	2036	0.9	0
76	2036	1	0
76	2036	1.002759312626	0
81	2036	0.1	0
81	2036	0.2	0
81	2036	0.3	0
81	2036	0.4	0
81	2036	0.5	0
81	2036	0.6	0
81	2036	0.7	0
81	2036	0.8	0
81	2036	0.9	0
81	2036	1	0
81	2036	1.002759312626	0
96	2036	0.7	8320
96	2036	0.8	0
96	2036	0.9	0
96	2036	1	0
96	2036	1.002759312626	0
98	2036	0.7	8320
98	2036	0.8	0
98	2036	0.9	0
98	2036	1	0
98	2036	1.002759312626	0
161	2036	0.1	0
161	2036	0.2	0
161	2036	0.3	0
161	2036	0.4	0
161	2036	0.5	0
161	2036	0.6	0
161	2036	0.7	0
161	2036	0.8	0
161	2036	0.9	0
161	2036	1	0
161	2036	1.002759312626	0
166	2036	0.1	0
166	2036	0.2	0
166	2036	0.3	0
166	2036	0.4	0
166	2036	0.5	0
166	2036	0.6	0
166	2036	0.7	0
166	2036	0.8	0
166	2036	0.9	0
166	2036	1	0
166	2036	1.002759312626	0
181	2036	0.7	2560
181	2036	0.8	0
181	2036	0.9	0
181	2036	1	0
181	2036	1.002759312626	0
183	2036	0.7	2560
183	2036	0.8	0
183	2036	0.9	0
183	2036	1	0
183	2036	1.002759312626	0
246	2036	0.1	0
246	2036	0.2	0
246	2036	0.3	0
246	2036	0.4	0
246	2036	0.5	0
246	2036	0.6	0
246	2036	0.7	0
246	2036	0.8	0
246	2036	0.9	0
246	2036	1	0
246	2036	1.002759312626	0
251	2036	0.1	0
251	2036	0.2	0
251	2036	0.3	0
251	2036	0.4	0
251	2036	0.5	0
251	2036	0.6	0
251	2036	0.7	0
251	2036	0.8	0
251	2036	0.9	0
251	2036	1	0
251	2036	1.002759312626	0
266	2036	0.7	8320
266	2036	0.8	0
266	2036	0.9	0
266	2036	1	0
266	2036	1.002759312626	0
268	2036	0.7	8320
268	2036	0.8	0
268	2036	0.9	0
268	2036	1	0
268	2036	1.002759312626	0
331	2036	0.1	0
331	2036	0.2	0
331	2036	0.3	0
331	2036	0.4	0
331	2036	0.5	0
331	2036	0.6	0
331	2036	0.7	0
331	2036	0.8	0
331	2036	0.9	0
331	2036	1	0
331	2036	1.002759312626	0
336	2036	0.1	0
336	2036	0.2	0
336	2036	0.3	0
336	2036	0.4	0
336	2036	0.5	0
336	2036	0.6	0
336	2036	0.7	0
336	2036	0.8	0
336	2036	0.9	0
336	2036	1	0
336	2036	1.002759312626	0
351	2036	0.1	0
351	2036	0.2	0
351	2036	0.3	0
351	2036	0.4	0
351	2036	0.5	0
351	2036	0.6	0
351	2036	0.7	0
351	2036	0.8	0
351	2036	0.9	0
351	2036	1	0
351	2036	1.002759312626	0
353	2036	0.1	0
353	2036	0.2	0
353	2036	0.3	0
353	2036	0.4	0
353	2036	0.5	0
353	2036	0.6	0
353	2036	0.7	0
353	2036	0.8	0
353	2036	0.9	0
353	2036	1	0
353	2036	1.002759312626	0
384	2036	0.1	0
384	2036	0.2	0
384	2036	0.3	0
384	2036	0.4	0
384	2036	0.5	0
384	2036	0.6	0
384	2036	0.7	0
384	2036	0.8	0
384	2036	0.9	0
384	2036	1	0
384	2036	1.002759312626	0
389	2036	0.1	0
389	2036	0.2	0
389	2036	0.3	0
389	2036	0.4	0
389	2036	0.5	0
389	2036	0.6	0
389	2036	0.7	0
389	2036	0.8	0
389	2036	0.9	0
389	2036	1	0
389	2036	1.002759312626	0
404	2036	0.1	0
404	2036	0.2	0
404	2036	0.3	0
404	2036	0.4	0
404	2036	0.5	0
404	2036	0.6	0
404	2036	0.7	0
404	2036	0.8	0
404	2036	0.9	0
404	2036	1	0
404	2036	1.002759312626	0
406	2036	0.1	0
406	2036	0.2	0
406	2036	0.3	0
406	2036	0.4	0
406	2036	0.5	0
406	2036	0.6	0
406	2036	0.7	0
406	2036	0.8	0
406	2036	0.9	0
406	2036	1	0
406	2036	1.002759312626	0
437	2036	0.1	0
437	2036	0.2	0
437	2036	0.3	0
437	2036	0.4	0
437	2036	0.5	0
437	2036	0.6	0
437	2036	0.7	0
437	2036	0.8	0
437	2036	0.9	0
437	2036	1	0
437	2036	1.002759312626	0
442	2036	0.1	0
442	2036	0.2	0
442	2036	0.3	0
442	2036	0.4	0
442	2036	0.5	0
442	2036	0.6	0
442	2036	0.7	0
442	2036	0.8	0
442	2036	0.9	0
442	2036	1	0
442	2036	1.002759312626	0
457	2036	1.002759312626	1403248.0276122
459	2036	1.002759312626	1403248.0276122
490	2036	0.1	0
490	2036	0.2	0
490	2036	0.3	0
490	2036	0.4	0
490	2036	0.5	0
490	2036	0.6	0
490	2036	0.7	0
490	2036	0.8	0
490	2036	0.9	0
490	2036	1	0
490	2036	1.002759312626	0
495	2036	1.002759312626	289927.27843228
510	2036	0.1	0
510	2036	0.2	0
510	2036	0.3	0
510	2036	0.4	0
510	2036	0.5	0
510	2036	0.6	0
510	2036	0.7	0
510	2036	0.8	0
510	2036	0.9	0
510	2036	1	0
510	2036	1.002759312626	0
512	2036	0.1	0
512	2036	0.2	0
512	2036	0.3	0
512	2036	0.4	0
512	2036	0.5	0
512	2036	0.6	0
512	2036	0.7	0
512	2036	0.8	0
512	2036	0.9	0
512	2036	1	0
512	2036	1.002759312626	0
543	2036	0.1	0
543	2036	0.2	0
543	2036	0.3	0
543	2036	0.4	0
543	2036	0.5	0
543	2036	0.6	0
543	2036	0.7	0
543	2036	0.8	0
543	2036	0.9	0
543	2036	1	0
543	2036	1.002759312626	0
548	2036	0.1	0
548	2036	0.2	0
548	2036	0.3	0
548	2036	0.4	0
548	2036	0.5	0
548	2036	0.6	0
548	2036	0.7	0
548	2036	0.8	0
548	2036	0.9	0
548	2036	1	0
548	2036	1.002759312626	0
563	2036	0.1	0
563	2036	0.2	0
563	2036	0.3	0
563	2036	0.4	0
563	2036	0.5	0
563	2036	0.6	0
563	2036	0.7	0
563	2036	0.8	0
563	2036	0.9	0
563	2036	1	0
563	2036	1.002759312626	0
565	2036	0.1	0
565	2036	0.2	0
565	2036	0.3	0
565	2036	0.4	0
565	2036	0.5	0
565	2036	0.6	0
565	2036	0.7	0
565	2036	0.8	0
565	2036	0.9	0
565	2036	1	0
565	2036	1.002759312626	0
596	2036	0.1	0
596	2036	0.2	0
596	2036	0.3	0
596	2036	0.4	0
596	2036	0.5	0
596	2036	0.6	0
596	2036	0.7	0
596	2036	0.8	0
596	2036	0.9	0
596	2036	1	0
596	2036	1.002759312626	0
601	2036	0.1	0
601	2036	0.2	0
601	2036	0.3	0
601	2036	0.4	0
601	2036	0.5	0
601	2036	0.6	0
601	2036	0.7	0
601	2036	0.8	0
601	2036	0.9	0
601	2036	1	0
601	2036	1.002759312626	0
616	2036	0.1	0
616	2036	0.2	0
616	2036	0.3	0
616	2036	0.4	0
616	2036	0.5	0
616	2036	0.6	0
616	2036	0.7	0
616	2036	0.8	0
616	2036	0.9	0
616	2036	1	0
616	2036	1.002759312626	0
618	2036	0.1	0
618	2036	0.2	0
618	2036	0.3	0
618	2036	0.4	0
618	2036	0.5	0
618	2036	0.6	0
618	2036	0.7	0
618	2036	0.8	0
618	2036	0.9	0
618	2036	1	0
618	2036	1.002759312626	0
649	2036	0.1	0
649	2036	0.2	0
649	2036	0.3	0
649	2036	0.4	0
649	2036	0.5	0
649	2036	0.6	0
649	2036	0.7	0
649	2036	0.8	0
649	2036	0.9	0
649	2036	1	0
649	2036	1.002759312626	0
654	2036	0.1	0
654	2036	0.2	0
654	2036	0.3	0
654	2036	0.4	0
654	2036	0.5	0
654	2036	0.6	0
654	2036	0.7	0
654	2036	0.8	0
654	2036	0.9	0
654	2036	1	0
654	2036	1.002759312626	0
669	2036	1.002759312626	1826541.8541233
671	2036	1.002759312626	1826541.8541233
702	2036	0.1	0
702	2036	0.2	0
702	2036	0.3	0
702	2036	0.4	0
702	2036	0.5	0
702	2036	0.6	0
702	2036	0.7	0
702	2036	0.8	0
702	2036	0.9	0
702	2036	1	0
702	2036	1.002759312626	0
707	2036	1.002759312626	289927.27843228
722	2036	0.1	0
722	2036	0.2	0
722	2036	0.3	0
722	2036	0.4	0
722	2036	0.5	0
722	2036	0.6	0
722	2036	0.7	0
722	2036	0.8	0
722	2036	0.9	0
722	2036	1	0
722	2036	1.002759312626	0
724	2036	0.1	0
724	2036	0.2	0
724	2036	0.3	0
724	2036	0.4	0
724	2036	0.5	0
724	2036	0.6	0
724	2036	0.7	0
724	2036	0.8	0
724	2036	0.9	0
724	2036	1	0
724	2036	1.002759312626	0
755	2036	0.1	0
755	2036	0.2	0
755	2036	0.3	0
755	2036	0.4	0
755	2036	0.5	0
755	2036	0.6	0
755	2036	0.7	0
755	2036	0.8	0
755	2036	0.9	0
755	2036	1	0
755	2036	1.002759312626	0
760	2036	0.1	0
760	2036	0.2	0
760	2036	0.3	0
760	2036	0.4	0
760	2036	0.5	0
760	2036	0.6	0
760	2036	0.7	0
760	2036	0.8	0
760	2036	0.9	0
760	2036	1	0
760	2036	1.002759312626	0
775	2036	1.002759312626	1536614.5756911
777	2036	1.002759312626	1536614.5756911
797	2036	1.002759312626	556660.37458997
799	2036	1.002759312626	556660.37458997
819	2036	1.002759312626	133366.54807885
821	2036	1.002759312626	133366.54807885
856	2036	1.002759312626	133366.54807885
858	2036	1.002759312626	133366.54807885
878	2036	1.002759312626	556660.37458997
880	2036	1.002759312626	556660.37458997
915	2036	1.002759312626	1403248.0276122
917	2036	1.002759312626	1403248.0276122
937	2036	1.002759312626	133366.54807885
939	2036	1.002759312626	133366.54807885
974	2036	1.002759312626	1403248.0276122
976	2036	1.002759312626	1403248.0276122
996	2036	1.002759312626	133366.54807885
998	2036	1.002759312626	133366.54807885
1033	2036	1.002759312626	133366.54807885
1035	2036	1.002759312626	133366.54807885
1055	2036	1.002759312626	556660.37458997
1057	2036	1.002759312626	556660.37458997
1092	2036	1.002759312626	133366.54807885
1094	2036	1.002759312626	133366.54807885
1114	2036	1.002759312626	1403248.0276122
1116	2036	1.002759312626	1403248.0276122
1136	2036	1.002759312626	979954.2011011
1138	2036	1.002759312626	979954.2011011
1158	2036	0.1	0
1158	2036	0.2	0
1158	2036	0.3	0
1158	2036	0.4	0
1158	2036	0.5	0
1158	2036	0.6	0
1158	2036	0.7	0
1158	2036	0.8	0
1158	2036	0.9	0
1158	2036	1	0
1158	2036	1.002759312626	0
1160	2036	0.1	0
1160	2036	0.2	0
1160	2036	0.3	0
1160	2036	0.4	0
1160	2036	0.5	0
1160	2036	0.6	0
1160	2036	0.7	0
1160	2036	0.8	0
1160	2036	0.9	0
1160	2036	1	0
1160	2036	1.002759312626	0
1180	2036	0.1	0
1180	2036	0.2	0
1180	2036	0.3	0
1180	2036	0.4	0
1180	2036	0.5	0
1180	2036	0.6	0
1180	2036	0.7	0
1180	2036	0.8	0
1180	2036	0.9	0
1180	2036	1	0
1180	2036	1.002759312626	0
1182	2036	0.1	0
1182	2036	0.2	0
1182	2036	0.3	0
1182	2036	0.4	0
1182	2036	0.5	0
1182	2036	0.6	0
1182	2036	0.7	0
1182	2036	0.8	0
1182	2036	0.9	0
1182	2036	1	0
1182	2036	1.002759312626	0
1202	2036	0.1	0
1202	2036	0.2	0
1202	2036	0.3	0
1202	2036	0.4	0
1202	2036	0.5	0
1202	2036	0.6	0
1202	2036	0.7	0
1202	2036	0.8	0
1202	2036	0.9	0
1202	2036	1	0
1202	2036	1.002759312626	0
1204	2036	0.1	0
1204	2036	0.2	0
1204	2036	0.3	0
1204	2036	0.4	0
1204	2036	0.5	0
1204	2036	0.6	0
1204	2036	0.7	0
1204	2036	0.8	0
1204	2036	0.9	0
1204	2036	1	0
1204	2036	1.002759312626	0
1224	2036	1.002759312626	1403248.0276122
1226	2036	1.002759312626	1403248.0276122
1246	2036	0.1	0
1246	2036	0.2	0
1246	2036	0.3	0
1246	2036	0.4	0
1246	2036	0.5	0
1246	2036	0.6	0
1246	2036	0.7	0
1246	2036	0.8	0
1246	2036	0.9	0
1246	2036	1	0
1246	2036	1.002759312626	0
1248	2036	0.1	0
1248	2036	0.2	0
1248	2036	0.3	0
1248	2036	0.4	0
1248	2036	0.5	0
1248	2036	0.6	0
1248	2036	0.7	0
1248	2036	0.8	0
1248	2036	0.9	0
1248	2036	1	0
1248	2036	1.002759312626	0
1280	2036	1.002759312626	2273029.8629091
1282	2036	1.002759312626	2273029.8629091
1334	2036	1.002759312626	690026.92266882
1336	2036	1.002759312626	690026.92266882
1356	2036	1.002759312626	266733.0961577
1358	2036	1.002759312626	266733.0961577
1378	2036	1.002759312626	266733.0961577
1380	2036	1.002759312626	266733.0961577

