version 3
run General-0-20250223-12:38:54-19252
attr configname General
attr datetime 20250223-12:38:54
attr datetimef 20250223-123854
attr experiment General
attr inifile omnetpp.ini
attr iterationvars ""
attr iterationvarsd ""
attr iterationvarsf ""
attr measurement ""
attr network sdnproject.WiredAndWirelessHostsWithAP
attr processid 19252
attr repetition 0
attr replication #0
attr resultdir results
attr runnumber 0
attr seedset 0
config image-path ../../../../inet4.5/images
config network sdnproject.WiredAndWirelessHostsWithAP
config sim-time-limit 400s
config **.addDefaultRoutes true
config **.*Host*.numApps 3
config **.*Host*.app[0].typename UdpEchoApp
config **.*Host*.app[0].localPort 1000
config **.*Host*.app[*].typename PingApp
config **.wirelessHost1.app[1].destAddresses "\"wiredHost8\""
config **.*Host*.app[1..].destPort 1000
config **.initialZ 0m
config *.bts.radioMedium.txPower 30mW
config *.bts.radioMedium.centerFrequency 28GHz
config *.bts.wlan[0].radioMedium "\"IRadioMedium\""
config *.bts.wlan[0].radio.transmitter.communicationRange 500m
config *.radioMedium.phyMode "\"OFDM\""
config *.wirelessHost1.mobility.typename TractorMobility
config *.wirelessHost1.mobility.x1 2000m
config *.wirelessHost1.mobility.y1 1542m
config *.wirelessHost1.mobility.x2 2100m
config *.wirelessHost1.mobility.y2 1800m
config *.wirelessHost1.mobility.rowCount 5
config *.wirelessHost1.mobility.speed 50mps
config *.wirelessHost2.mobility.typename TractorMobility
config *.wirelessHost2.mobility.x1 967m
config *.wirelessHost2.mobility.y1 1542m
config *.wirelessHost2.mobility.x2 1300m
config *.wirelessHost2.mobility.y2 1600m
config *.wirelessHost2.mobility.rowCount 6
config *.wirelessHost2.mobility.speed 80mps
config *.wirelessHost3.mobility.typename TractorMobility
config *.wirelessHost3.mobility.x1 1179m
config *.wirelessHost3.mobility.y1 700m
config *.wirelessHost3.mobility.x2 600m
config *.wirelessHost3.mobility.y2 300m
config *.wirelessHost3.mobility.rowCount 6
config *.wirelessHost3.mobility.speed 90mps
config *.wirelessHost4.mobility.typename TractorMobility
config *.wirelessHost4.mobility.x1 1416m
config *.wirelessHost4.mobility.y1 911m
config *.wirelessHost4.mobility.x2 1200m
config *.wirelessHost4.mobility.y2 500m
config *.wirelessHost4.mobility.rowCount 7
config *.wirelessHost4.mobility.speed 100mps
config *.bts.wlan[0].radio.displayCommunicationRange true
config *.visualizer.mediumVisualizer.displaySignals true
config *.visualizer.physicalLinkVisualizer.displayLinks true

vector 0 WiredAndWirelessHostsWithAP.wirelessHost1.lo[0].lo rcvdPkFromHl:vector(packetBytes) ETV
attr interpolationmode none
attr recordingmode vector(packetBytes)
attr source packetReceivedFromUpper
attr title "packets received from higher layer, packetBytes"
vector 1 WiredAndWirelessHostsWithAP.wirelessHost1.lo[0].lo passedUpPk:vector(packetBytes) ETV
attr interpolationmode none
attr recordingmode vector(packetBytes)
attr source packetSentToUpper
attr title "packets passed to higher layer, packetBytes"
vector 2 WiredAndWirelessHostsWithAP.wirelessHost1.lo[0] packetDropInterfaceDown:vector(packetBytes) ETV
attr interpolationmode none
attr recordingmode vector(packetBytes)
attr source packetDropReasonIsInterfaceDown(packetDropped)
attr title "packet drops: interface down, packetBytes"
vector 3 WiredAndWirelessHostsWithAP.wirelessHost1.lo[0] packetDropNoCarrier:vector(packetBytes) ETV
attr interpolationmode none
attr recordingmode vector(packetBytes)
attr source packetDropReasonIsNoCarrier(packetDropped)
attr title "packet drops: no carrier, packetBytes"
vector 4 WiredAndWirelessHostsWithAP.wirelessHost1.wlan[0].agent sentRequest:vector ETV
attr recordingmode vector
attr title "sent requests"
vector 5 WiredAndWirelessHostsWithAP.wirelessHost1.wlan[0].agent acceptConfirm:vector ETV
attr recordingmode vector
attr title "accepted confirms"
vector 6 WiredAndWirelessHostsWithAP.wirelessHost1.wlan[0].agent dropConfirm:vector ETV
attr recordingmode vector
attr title "dropped confirms"
vector 7 WiredAndWirelessHostsWithAP.wirelessHost1.wlan[0].mac.dcf.channelAccess.pendingQueue queueLength:vector ETV
attr autoWarmupFilter false
attr interpolationmode sample-hold
attr recordingmode vector
attr source "warmup(atomic(constant0(packetPushEnded) + count(packetPushStarted) - count(packetPulled) - count(packetRemoved) - count(packetDropped)))"
attr title "queue length"
attr unit pk
vector 8 WiredAndWirelessHostsWithAP.wirelessHost1.wlan[0].mac.dcf.channelAccess.pendingQueue queueBitLength:vector ETV
attr autoWarmupFilter false
attr interpolationmode sample-hold
attr recordingmode vector
attr source "warmup(atomic(constant0(packetPushEnded) + sum(packetLength(packetPushStarted)) - sum(packetLength(packetPulled)) - sum(packetLength(packetRemoved)) - sum(packetLength(packetDropped))))"
attr title "queue bit length"
attr unit b
vector 9 WiredAndWirelessHostsWithAP.wirelessHost1.wlan[0].mac.dcf.channelAccess.pendingQueue queueingTime:vector ETV
attr interpolationmode none
attr recordingmode vector
attr source queueingTime(packetPulled)
attr title "queueing times"
attr unit s
vector 10 WiredAndWirelessHostsWithAP.wirelessHost1.wlan[0].mac.dcf.channelAccess.pendingQueue incomingPacketLengths:vector ETV
attr interpolationmode none
attr recordingmode vector
attr source packetLength(packetPushStarted)
attr title "incoming packet lengths"
attr unit b
vector 11 WiredAndWirelessHostsWithAP.wirelessHost1.wlan[0].mac.dcf.channelAccess.pendingQueue incomingDataRate:vector ETV
attr interpolationmode linear
attr recordingmode vector
attr source throughput(packetPushStarted)
attr title "incoming datarate"
attr unit bps
vector 12 WiredAndWirelessHostsWithAP.wirelessHost1.wlan[0].mac.dcf.channelAccess.pendingQueue outgoingPacketLengths:vector ETV
attr interpolationmode none
attr recordingmode vector
attr source packetLength(packetPulled)
attr title "outgoing packet lengths"
attr unit b
vector 13 WiredAndWirelessHostsWithAP.wirelessHost1.wlan[0].mac.dcf.channelAccess.pendingQueue outgoingDataRate:vector ETV
attr interpolationmode linear
attr recordingmode vector
attr source throughput(packetPulled)
attr title "outgoing datarate"
attr unit bps
vector 14 WiredAndWirelessHostsWithAP.wirelessHost1.wlan[0].mac.dcf.channelAccess.pendingQueue droppedPacketLengthsQueueOverflow:vector ETV
attr interpolationmode none
attr recordingmode vector
attr source packetLength(packetDropReasonIsQueueOverflow(packetDropped))
attr title "dropped packet lengths: queue overflow"
attr unit b
vector 15 WiredAndWirelessHostsWithAP.wirelessHost1.wlan[0].mac.dcf.channelAccess.pendingQueue flowQueueingTime:vector ETV
attr interpolationmode none
attr recordingmode vector
attr source queueingTime(demuxFlow(packetPulled))
attr title "flow queueing times"
attr unit s
vector 16 WiredAndWirelessHostsWithAP.wirelessHost1.wlan[0].mac.dcf.channelAccess.pendingQueue flowIncomingDataRate:vector ETV
attr interpolationmode linear
attr recordingmode vector
attr source throughput(flowPacketLength(demuxFlow(packetPushStarted)))
attr title "flow specific incoming data rate"
attr unit bps
vector 17 WiredAndWirelessHostsWithAP.wirelessHost1.wlan[0].mac.dcf.channelAccess.pendingQueue flowOutgoingDataRate:vector ETV
attr interpolationmode linear
attr recordingmode vector
attr source throughput(flowPacketLength(demuxFlow(packetPulled)))
attr title "flow specific outgoing data rate"
attr unit bps
vector 18 WiredAndWirelessHostsWithAP.wirelessHost1.wlan[0].mac.dcf.channelAccess.inProgressFrames queueingTime:vector ETV
attr interpolationmode none
attr recordingmode vector
attr source queueingTime(packetDequeued)
attr title "queueing times"
vector 19 WiredAndWirelessHostsWithAP.wirelessHost1.wlan[0].mac.dcf.channelAccess.inProgressFrames queueLength:vector ETV
attr autoWarmupFilter false
attr interpolationmode sample-hold
attr recordingmode vector
attr source "warmup(count(packetEnqueued) - count(packetDequeued))"
attr title "queue length"
vector 20 WiredAndWirelessHostsWithAP.wirelessHost1.wlan[0].mac.dcf.channelAccess.contention backoffPeriodGenerated:vector ETV
attr interpolationmode none
attr recordingmode vector
attr title "backoff periods"
vector 21 WiredAndWirelessHostsWithAP.wirelessHost1.wlan[0].mac.dcf.channelAccess.contention backoffActive:vector ETV
attr autoWarmupFilter false
attr interpolationmode sample-hold
attr recordingmode vector
attr source warmup(count(backoffStarted)-count(backoffStopped))
attr title "backoff active"
vector 22 WiredAndWirelessHostsWithAP.wirelessHost1.wlan[0].mac.dcf.channelAccess.contention stateChanged:vector ETV
attr enum IDLE,DEFER,IFS_AND_BACKOFF
attr interpolationmode none
attr recordingmode vector
attr title "contention state changed"
attr type enum
vector 23 WiredAndWirelessHostsWithAP.wirelessHost1.wlan[0].mac.dcf.recipientMacDataService packetDropDuplicateDetected:vector(packetBytes) ETV
attr interpolationmode none
attr recordingmode vector(packetBytes)
attr source packetDropReasonIsDuplicateDetected(packetDropped)
attr title "packet drops: duplicate detected, packetBytes"
vector 24 WiredAndWirelessHostsWithAP.wirelessHost1.wlan[0].mac.dcf.recoveryProcedure contentionWindowChanged:vector ETV
attr interpolationmode sample-hold
attr recordingmode vector
attr title "contention window"
vector 25 WiredAndWirelessHostsWithAP.wirelessHost1.wlan[0].mac.dcf packetSentToPeer:vector(packetBytes) ETV
attr interpolationmode none
attr recordingmode vector(packetBytes)
attr title "packets sent, packetBytes"
vector 26 WiredAndWirelessHostsWithAP.wirelessHost1.wlan[0].mac.dcf packetSentToPeerUnicast:vector(packetBytes) ETV
attr interpolationmode none
attr recordingmode vector(packetBytes)
attr source ieee80211Unicast(packetSentToPeer)
attr title "packets sent: unicast, packetBytes"
vector 27 WiredAndWirelessHostsWithAP.wirelessHost1.wlan[0].mac.dcf packetSentToPeerMulticast:vector(packetBytes) ETV
attr interpolationmode none
attr recordingmode vector(packetBytes)
attr source ieee80211Multicast(packetSentToPeer)
attr title "packets sent: multicast, packetBytes"
vector 28 WiredAndWirelessHostsWithAP.wirelessHost1.wlan[0].mac.dcf packetSentToPeerBroadcast:vector(packetBytes) ETV
attr interpolationmode none
attr recordingmode vector(packetBytes)
attr source ieee80211Broadcast(packetSentToPeer)
attr title "packets sent: broadcast , packetBytes"
vector 29 WiredAndWirelessHostsWithAP.wirelessHost1.wlan[0].mac.dcf packetSentToPeerWithRetry:vector(packetBytes) ETV
attr interpolationmode none
attr recordingmode vector(packetBytes)
attr source ieee80211Retry(packetSentToPeer)
attr title "packets sent: with retry, packetBytes"
vector 30 WiredAndWirelessHostsWithAP.wirelessHost1.wlan[0].mac.dcf packetSentToPeerWithoutRetry:vector(packetBytes) ETV
attr interpolationmode none
attr recordingmode vector(packetBytes)
attr source ieee80211NotRetry(packetSentToPeer)
attr title "packets sent: without retry, packetBytes"
vector 31 WiredAndWirelessHostsWithAP.wirelessHost1.wlan[0].mac.dcf packetReceivedFromPeer:vector(packetBytes) ETV
attr interpolationmode none
attr recordingmode vector(packetBytes)
attr title "packets received, packetBytes"
vector 32 WiredAndWirelessHostsWithAP.wirelessHost1.wlan[0].mac.dcf packetReceivedFromPeerUnicast:vector(packetBytes) ETV
attr interpolationmode none
attr recordingmode vector(packetBytes)
attr source ieee80211Unicast(packetReceivedFromPeer)
attr title "packets received: unicast, packetBytes"
vector 33 WiredAndWirelessHostsWithAP.wirelessHost1.wlan[0].mac.dcf packetReceivedFromPeerMulticast:vector(packetBytes) ETV
attr interpolationmode none
attr recordingmode vector(packetBytes)
attr source ieee80211Multicast(packetReceivedFromPeer)
attr title "packets received: multicast, packetBytes"
vector 34 WiredAndWirelessHostsWithAP.wirelessHost1.wlan[0].mac.dcf packetReceivedFromPeerBroadcast:vector(packetBytes) ETV
attr interpolationmode none
attr recordingmode vector(packetBytes)
attr source ieee80211Broadcast(packetReceivedFromPeer)
attr title "packets received: broadcast, packetBytes"
vector 35 WiredAndWirelessHostsWithAP.wirelessHost1.wlan[0].mac.dcf packetReceivedFromPeerWithRetry:vector(packetBytes) ETV
attr interpolationmode none
attr recordingmode vector(packetBytes)
attr source ieee80211Retry(packetReceivedFromPeer)
attr title "packets received: with retry, packetBytes"
vector 36 WiredAndWirelessHostsWithAP.wirelessHost1.wlan[0].mac.dcf packetReceivedFromPeerWithoutRetry:vector(packetBytes) ETV
attr interpolationmode none
attr recordingmode vector(packetBytes)
attr source ieee80211NotRetry(packetReceivedFromPeer)
attr title "packets received: without retry, packetBytes"
vector 37 WiredAndWirelessHostsWithAP.wirelessHost1.wlan[0].mac.dcf packetDrop:vector(packetBytes) ETV
attr interpolationmode none
attr recordingmode vector(packetBytes)
attr source packetDropped
attr title "packet drops, packetBytes"
vector 38 WiredAndWirelessHostsWithAP.wirelessHost1.wlan[0].mac.dcf packetDropNotAddressedToUs:vector(packetBytes) ETV
attr interpolationmode none
attr recordingmode vector(packetBytes)
attr source packetDropReasonIsNotAddressedToUs(packetDropped)
attr title "packet drops: not addressed to us, packetBytes"
vector 39 WiredAndWirelessHostsWithAP.wirelessHost1.wlan[0].mac.dcf packetDropQueueOverflow:vector(packetBytes) ETV
attr interpolationmode none
attr recordingmode vector(packetBytes)
attr source packetDropReasonIsQueueOverflow(packetDropped)
attr title "packet drops: queue overflow, packetBytes"
vector 40 WiredAndWirelessHostsWithAP.wirelessHost1.wlan[0].mac.dcf packetDropRetryLimitReached:vector(packetBytes) ETV
attr interpolationmode none
attr recordingmode vector(packetBytes)
attr source packetDropReasonIsRetryLimitReached(packetDropped)
attr title "packet drops: retry limit reached, packetBytes"
vector 41 WiredAndWirelessHostsWithAP.wirelessHost1.wlan[0].mac.dcf frameSequenceActive:vector ETV
attr autoWarmupFilter false
attr interpolationmode sample-hold
attr recordingmode vector
attr source warmup(count(frameSequenceStarted)-count(frameSequenceFinished))
attr title "frame sequence active"
vector 42 WiredAndWirelessHostsWithAP.wirelessHost1.wlan[0].mac.dcf datarateSelected:vector ETV
attr interpolationmode none
attr recordingmode vector
attr title "datarates selected"
vector 43 WiredAndWirelessHostsWithAP.wirelessHost1.wlan[0].mac.rx nav:vector ETV
attr interpolationmode linear
attr recordingmode vector
attr source navChanged
attr title "network allocation vector"
vector 44 WiredAndWirelessHostsWithAP.wirelessHost1.wlan[0].mac packetSentToUpper:vector(packetBytes) ETV
attr interpolationmode none
attr recordingmode vector(packetBytes)
attr title "packets sent to upper layer, packetBytes"
vector 45 WiredAndWirelessHostsWithAP.wirelessHost1.wlan[0].mac packetSentToLower:vector(packetBytes) ETV
attr interpolationmode none
attr recordingmode vector(packetBytes)
attr title "packets sent to lower layer, packetBytes"
vector 46 WiredAndWirelessHostsWithAP.wirelessHost1.wlan[0].mac packetReceivedFromUpper:vector(packetBytes) ETV
attr interpolationmode none
attr recordingmode vector(packetBytes)
attr title "packets received from upper layer, packetBytes"
vector 47 WiredAndWirelessHostsWithAP.wirelessHost1.wlan[0].mac packetReceivedFromLower:vector(packetBytes) ETV
attr interpolationmode none
attr recordingmode vector(packetBytes)
attr title "packets received from lower layer, packetBytes"
vector 48 WiredAndWirelessHostsWithAP.wirelessHost1.wlan[0].mac packetDrop:vector(packetBytes) ETV
attr interpolationmode none
attr recordingmode vector(packetBytes)
attr source packetDropped
attr title "packet drops, packetBytes"
vector 49 WiredAndWirelessHostsWithAP.wirelessHost1.wlan[0].mac packetDropIncorrectlyReceived:vector(packetBytes) ETV
attr interpolationmode none
attr recordingmode vector(packetBytes)
attr source packetDropReasonIsIncorrectlyReceived(packetDropped)
attr title "packet drops: incorrectly received, packetBytes"
vector 50 WiredAndWirelessHostsWithAP.wirelessHost1.wlan[0].mac packetDropNotAddressedToUs:vector(packetBytes) ETV
attr interpolationmode none
attr recordingmode vector(packetBytes)
attr source packetDropReasonIsNotAddressedToUs(packetDropped)
attr title "packet drops: not addressed to us, packetBytes"
vector 51 WiredAndWirelessHostsWithAP.wirelessHost1.wlan[0].mac packetDropQueueOverflow:vector(packetBytes) ETV
attr interpolationmode none
attr recordingmode vector(packetBytes)
attr source packetDropReasonIsQueueOverflow(packetDropped)
attr title "packet drops: queue overflow, packetBytes"
vector 52 WiredAndWirelessHostsWithAP.wirelessHost1.wlan[0].mac packetDropRetryLimitReached:vector(packetBytes) ETV
attr interpolationmode none
attr recordingmode vector(packetBytes)
attr source packetDropReasonIsRetryLimitReached(packetDropped)
attr title "packet drops: retry limit reached, packetBytes"
vector 53 WiredAndWirelessHostsWithAP.wirelessHost1.wlan[0].mac packetDropDuplicateDetected:vector(packetBytes) ETV
attr interpolationmode none
attr recordingmode vector(packetBytes)
attr source packetDropReasonIsDuplicateDetected(packetDropped)
attr title "packet drops: duplicate detected, packetBytes"
vector 54 WiredAndWirelessHostsWithAP.wirelessHost1.wlan[0].mac packetDropOther:vector(packetBytes) ETV
attr interpolationmode none
attr recordingmode vector(packetBytes)
attr source packetDropReasonIsOther(packetDropped)
attr title "packet drops: other, packetBytes"
vector 55 WiredAndWirelessHostsWithAP.wirelessHost1.wlan[0].radio radioMode:vector ETV
attr interpolationmode sample-hold
attr recordingmode vector
attr source radioModeChanged
attr title "Radio mode"
vector 56 WiredAndWirelessHostsWithAP.wirelessHost1.wlan[0].radio receptionState:vector ETV
attr interpolationmode sample-hold
attr recordingmode vector
attr source receptionStateChanged
attr title "Radio reception state"
vector 57 WiredAndWirelessHostsWithAP.wirelessHost1.wlan[0].radio transmissionState:vector ETV
attr interpolationmode sample-hold
attr recordingmode vector
attr source transmissionStateChanged
attr title "Radio transmission state"
vector 58 WiredAndWirelessHostsWithAP.wirelessHost1.wlan[0].radio radioChannel:vector ETV
attr interpolationmode sample-hold
attr recordingmode vector
attr source radioChannelChanged
attr title "Radio channel"
vector 59 WiredAndWirelessHostsWithAP.wirelessHost1.wlan[0] packetDropInterfaceDown:vector(packetBytes) ETV
attr interpolationmode none
attr recordingmode vector(packetBytes)
attr source packetDropReasonIsInterfaceDown(packetDropped)
attr title "packet drops: interface down, packetBytes"
vector 60 WiredAndWirelessHostsWithAP.wirelessHost1.wlan[0] packetDropNoCarrier:vector(packetBytes) ETV
attr interpolationmode none
attr recordingmode vector(packetBytes)
attr source packetDropReasonIsNoCarrier(packetDropped)
attr title "packet drops: no carrier, packetBytes"
vector 61 WiredAndWirelessHostsWithAP.wirelessHost1.ipv4.ip packetDropAddressResolutionFailed:vector(packetBytes) ETV
attr interpolationmode none
attr recordingmode vector(packetBytes)
attr source packetDropReasonIsAddressResolutionFailed(packetDropped)
attr title "packet drop: address resolution failed, packetBytes"
vector 62 WiredAndWirelessHostsWithAP.wirelessHost1.ipv4.ip packetDropHopLimitReached:vector(packetBytes) ETV
attr interpolationmode none
attr recordingmode vector(packetBytes)
attr source packetDropReasonIsHopLimitReached(packetDropped)
attr title "packet drop: hop limit reached, packetBytes"
vector 63 WiredAndWirelessHostsWithAP.wirelessHost1.ipv4.ip packetDropForwardingDisabled:vector(packetBytes) ETV
attr interpolationmode none
attr recordingmode vector(packetBytes)
attr source packetDropReasonIsForwardingDisabled(packetDropped)
attr title "packet drop: forwarding disabled, packetBytes"
vector 64 WiredAndWirelessHostsWithAP.wirelessHost1.ipv4.ip packetDropNoInterfaceFound:vector(packetBytes) ETV
attr interpolationmode none
attr recordingmode vector(packetBytes)
attr source packetDropReasonIsNoInterfaceFound(packetDropped)
attr title "packet drop: no interface found, packetBytes"
vector 65 WiredAndWirelessHostsWithAP.wirelessHost1.ipv4.ip packetDropNoRouteFound:vector(packetBytes) ETV
attr interpolationmode none
attr recordingmode vector(packetBytes)
attr source packetDropReasonIsNoRouteFound(packetDropped)
attr title "packet drop: no route found, packetBytes"
vector 66 WiredAndWirelessHostsWithAP.wirelessHost1.ipv4.ip packetDropUndefined:vector(packetBytes) ETV
attr interpolationmode none
attr recordingmode vector(packetBytes)
attr source packetDropReasonIsUndefined(packetDropped)
attr title "packet drop: undefined, packetBytes"
vector 67 WiredAndWirelessHostsWithAP.wirelessHost1.ipv4.arp arpRequestSent:vector(packetBytes) ETV
attr recordingmode vector(packetBytes)
attr source arpRequestSent
attr title "ARP request sent, packetBytes"
vector 68 WiredAndWirelessHostsWithAP.wirelessHost1.ipv4.arp arpReplySent:vector(packetBytes) ETV
attr recordingmode vector(packetBytes)
attr source arpReplySent
attr title "ARP replies sent, packetBytes"
vector 69 WiredAndWirelessHostsWithAP.wirelessHost1.udp packetSent:vector(packetBytes) ETV
attr interpolationmode none
attr recordingmode vector(packetBytes)
attr source packetSent
attr title "packets sent, packetBytes"
vector 70 WiredAndWirelessHostsWithAP.wirelessHost1.udp packetReceived:vector(packetBytes) ETV
attr interpolationmode none
attr recordingmode vector(packetBytes)
attr source packetReceived
attr title "packets received, packetBytes"
vector 71 WiredAndWirelessHostsWithAP.wirelessHost1.udp passedUpPk:vector(count) ETV
attr interpolationmode none
attr recordingmode vector(count)
attr source packetSentToUpper
attr title "packets passed up, count"
vector 72 WiredAndWirelessHostsWithAP.wirelessHost1.udp droppedPkWrongPort:vector(count) ETV
attr interpolationmode none
attr recordingmode vector(count)
attr source packetDropReasonIsNoPortFound(packetDropped)
attr title "packets dropped (wrong port), count"
vector 73 WiredAndWirelessHostsWithAP.wirelessHost1.udp droppedPkBadChecksum:vector(count) ETV
attr interpolationmode none
attr recordingmode vector(count)
attr source packetDropReasonIsIncorrectlyReceived(packetDropped)
attr title "packets dropped (checksum error), count"
vector 74 WiredAndWirelessHostsWithAP.wirelessHost1.app[0] echoedPk:vector(packetBytes) ETV
attr interpolationmode none
attr recordingmode vector(packetBytes)
attr source packetSent
attr title "packets echoed, packetBytes"
vector 75 WiredAndWirelessHostsWithAP.wirelessHost1.app[1] rtt:vector ETV
attr interpolationmode none
attr recordingmode vector
attr title "ping round-trip time"
attr unit s
vector 76 WiredAndWirelessHostsWithAP.wirelessHost1.app[1] numLost:vector ETV
attr interpolationmode none
attr recordingmode vector
attr title "pings lost"
vector 77 WiredAndWirelessHostsWithAP.wirelessHost1.app[1] numOutOfOrderArrivals:vector ETV
attr interpolationmode none
attr recordingmode vector
attr title "ping out-of-order arrivals"
vector 78 WiredAndWirelessHostsWithAP.wirelessHost1.app[1] pingTxSeq:vector ETV
attr interpolationmode none
attr recordingmode vector
attr title "ping tx seq"
vector 79 WiredAndWirelessHostsWithAP.wirelessHost1.app[1] pingRxSeq:vector ETV
attr interpolationmode none
attr recordingmode vector
attr title "ping rx seq"
vector 80 WiredAndWirelessHostsWithAP.wirelessHost1.app[2] rtt:vector ETV
attr interpolationmode none
attr recordingmode vector
attr title "ping round-trip time"
attr unit s
vector 81 WiredAndWirelessHostsWithAP.wirelessHost1.app[2] numLost:vector ETV
attr interpolationmode none
attr recordingmode vector
attr title "pings lost"
vector 82 WiredAndWirelessHostsWithAP.wirelessHost1.app[2] numOutOfOrderArrivals:vector ETV
attr interpolationmode none
attr recordingmode vector
attr title "ping out-of-order arrivals"
vector 83 WiredAndWirelessHostsWithAP.wirelessHost1.app[2] pingTxSeq:vector ETV
attr interpolationmode none
attr recordingmode vector
attr title "ping tx seq"
vector 84 WiredAndWirelessHostsWithAP.wirelessHost1.app[2] pingRxSeq:vector ETV
attr interpolationmode none
attr recordingmode vector
attr title "ping rx seq"
vector 85 WiredAndWirelessHostsWithAP.wirelessHost2.lo[0].lo rcvdPkFromHl:vector(packetBytes) ETV
attr interpolationmode none
attr recordingmode vector(packetBytes)
attr source packetReceivedFromUpper
attr title "packets received from higher layer, packetBytes"
vector 86 WiredAndWirelessHostsWithAP.wirelessHost2.lo[0].lo passedUpPk:vector(packetBytes) ETV
attr interpolationmode none
attr recordingmode vector(packetBytes)
attr source packetSentToUpper
attr title "packets passed to higher layer, packetBytes"
vector 87 WiredAndWirelessHostsWithAP.wirelessHost2.lo[0] packetDropInterfaceDown:vector(packetBytes) ETV
attr interpolationmode none
attr recordingmode vector(packetBytes)
attr source packetDropReasonIsInterfaceDown(packetDropped)
attr title "packet drops: interface down, packetBytes"
vector 88 WiredAndWirelessHostsWithAP.wirelessHost2.lo[0] packetDropNoCarrier:vector(packetBytes) ETV
attr interpolationmode none
attr recordingmode vector(packetBytes)
attr source packetDropReasonIsNoCarrier(packetDropped)
attr title "packet drops: no carrier, packetBytes"
vector 89 WiredAndWirelessHostsWithAP.wirelessHost2.wlan[0].agent sentRequest:vector ETV
attr recordingmode vector
attr title "sent requests"
vector 90 WiredAndWirelessHostsWithAP.wirelessHost2.wlan[0].agent acceptConfirm:vector ETV
attr recordingmode vector
attr title "accepted confirms"
vector 91 WiredAndWirelessHostsWithAP.wirelessHost2.wlan[0].agent dropConfirm:vector ETV
attr recordingmode vector
attr title "dropped confirms"
vector 92 WiredAndWirelessHostsWithAP.wirelessHost2.wlan[0].mac.dcf.channelAccess.pendingQueue queueLength:vector ETV
attr autoWarmupFilter false
attr interpolationmode sample-hold
attr recordingmode vector
attr source "warmup(atomic(constant0(packetPushEnded) + count(packetPushStarted) - count(packetPulled) - count(packetRemoved) - count(packetDropped)))"
attr title "queue length"
attr unit pk
vector 93 WiredAndWirelessHostsWithAP.wirelessHost2.wlan[0].mac.dcf.channelAccess.pendingQueue queueBitLength:vector ETV
attr autoWarmupFilter false
attr interpolationmode sample-hold
attr recordingmode vector
attr source "warmup(atomic(constant0(packetPushEnded) + sum(packetLength(packetPushStarted)) - sum(packetLength(packetPulled)) - sum(packetLength(packetRemoved)) - sum(packetLength(packetDropped))))"
attr title "queue bit length"
attr unit b
vector 94 WiredAndWirelessHostsWithAP.wirelessHost2.wlan[0].mac.dcf.channelAccess.pendingQueue queueingTime:vector ETV
attr interpolationmode none
attr recordingmode vector
attr source queueingTime(packetPulled)
attr title "queueing times"
attr unit s
vector 95 WiredAndWirelessHostsWithAP.wirelessHost2.wlan[0].mac.dcf.channelAccess.pendingQueue incomingPacketLengths:vector ETV
attr interpolationmode none
attr recordingmode vector
attr source packetLength(packetPushStarted)
attr title "incoming packet lengths"
attr unit b
vector 96 WiredAndWirelessHostsWithAP.wirelessHost2.wlan[0].mac.dcf.channelAccess.pendingQueue incomingDataRate:vector ETV
attr interpolationmode linear
attr recordingmode vector
attr source throughput(packetPushStarted)
attr title "incoming datarate"
attr unit bps
vector 97 WiredAndWirelessHostsWithAP.wirelessHost2.wlan[0].mac.dcf.channelAccess.pendingQueue outgoingPacketLengths:vector ETV
attr interpolationmode none
attr recordingmode vector
attr source packetLength(packetPulled)
attr title "outgoing packet lengths"
attr unit b
vector 98 WiredAndWirelessHostsWithAP.wirelessHost2.wlan[0].mac.dcf.channelAccess.pendingQueue outgoingDataRate:vector ETV
attr interpolationmode linear
attr recordingmode vector
attr source throughput(packetPulled)
attr title "outgoing datarate"
attr unit bps
vector 99 WiredAndWirelessHostsWithAP.wirelessHost2.wlan[0].mac.dcf.channelAccess.pendingQueue droppedPacketLengthsQueueOverflow:vector ETV
attr interpolationmode none
attr recordingmode vector
attr source packetLength(packetDropReasonIsQueueOverflow(packetDropped))
attr title "dropped packet lengths: queue overflow"
attr unit b
vector 100 WiredAndWirelessHostsWithAP.wirelessHost2.wlan[0].mac.dcf.channelAccess.pendingQueue flowQueueingTime:vector ETV
attr interpolationmode none
attr recordingmode vector
attr source queueingTime(demuxFlow(packetPulled))
attr title "flow queueing times"
attr unit s
vector 101 WiredAndWirelessHostsWithAP.wirelessHost2.wlan[0].mac.dcf.channelAccess.pendingQueue flowIncomingDataRate:vector ETV
attr interpolationmode linear
attr recordingmode vector
attr source throughput(flowPacketLength(demuxFlow(packetPushStarted)))
attr title "flow specific incoming data rate"
attr unit bps
vector 102 WiredAndWirelessHostsWithAP.wirelessHost2.wlan[0].mac.dcf.channelAccess.pendingQueue flowOutgoingDataRate:vector ETV
attr interpolationmode linear
attr recordingmode vector
attr source throughput(flowPacketLength(demuxFlow(packetPulled)))
attr title "flow specific outgoing data rate"
attr unit bps
vector 103 WiredAndWirelessHostsWithAP.wirelessHost2.wlan[0].mac.dcf.channelAccess.inProgressFrames queueingTime:vector ETV
attr interpolationmode none
attr recordingmode vector
attr source queueingTime(packetDequeued)
attr title "queueing times"
vector 104 WiredAndWirelessHostsWithAP.wirelessHost2.wlan[0].mac.dcf.channelAccess.inProgressFrames queueLength:vector ETV
attr autoWarmupFilter false
attr interpolationmode sample-hold
attr recordingmode vector
attr source "warmup(count(packetEnqueued) - count(packetDequeued))"
attr title "queue length"
vector 105 WiredAndWirelessHostsWithAP.wirelessHost2.wlan[0].mac.dcf.channelAccess.contention backoffPeriodGenerated:vector ETV
attr interpolationmode none
attr recordingmode vector
attr title "backoff periods"
vector 106 WiredAndWirelessHostsWithAP.wirelessHost2.wlan[0].mac.dcf.channelAccess.contention backoffActive:vector ETV
attr autoWarmupFilter false
attr interpolationmode sample-hold
attr recordingmode vector
attr source warmup(count(backoffStarted)-count(backoffStopped))
attr title "backoff active"
vector 107 WiredAndWirelessHostsWithAP.wirelessHost2.wlan[0].mac.dcf.channelAccess.contention stateChanged:vector ETV
attr enum IDLE,DEFER,IFS_AND_BACKOFF
attr interpolationmode none
attr recordingmode vector
attr title "contention state changed"
attr type enum
vector 108 WiredAndWirelessHostsWithAP.wirelessHost2.wlan[0].mac.dcf.recipientMacDataService packetDropDuplicateDetected:vector(packetBytes) ETV
attr interpolationmode none
attr recordingmode vector(packetBytes)
attr source packetDropReasonIsDuplicateDetected(packetDropped)
attr title "packet drops: duplicate detected, packetBytes"
vector 109 WiredAndWirelessHostsWithAP.wirelessHost2.wlan[0].mac.dcf.recoveryProcedure contentionWindowChanged:vector ETV
attr interpolationmode sample-hold
attr recordingmode vector
attr title "contention window"
vector 110 WiredAndWirelessHostsWithAP.wirelessHost2.wlan[0].mac.dcf packetSentToPeer:vector(packetBytes) ETV
attr interpolationmode none
attr recordingmode vector(packetBytes)
attr title "packets sent, packetBytes"
vector 111 WiredAndWirelessHostsWithAP.wirelessHost2.wlan[0].mac.dcf packetSentToPeerUnicast:vector(packetBytes) ETV
attr interpolationmode none
attr recordingmode vector(packetBytes)
attr source ieee80211Unicast(packetSentToPeer)
attr title "packets sent: unicast, packetBytes"
vector 112 WiredAndWirelessHostsWithAP.wirelessHost2.wlan[0].mac.dcf packetSentToPeerMulticast:vector(packetBytes) ETV
attr interpolationmode none
attr recordingmode vector(packetBytes)
attr source ieee80211Multicast(packetSentToPeer)
attr title "packets sent: multicast, packetBytes"
vector 113 WiredAndWirelessHostsWithAP.wirelessHost2.wlan[0].mac.dcf packetSentToPeerBroadcast:vector(packetBytes) ETV
attr interpolationmode none
attr recordingmode vector(packetBytes)
attr source ieee80211Broadcast(packetSentToPeer)
attr title "packets sent: broadcast , packetBytes"
vector 114 WiredAndWirelessHostsWithAP.wirelessHost2.wlan[0].mac.dcf packetSentToPeerWithRetry:vector(packetBytes) ETV
attr interpolationmode none
attr recordingmode vector(packetBytes)
attr source ieee80211Retry(packetSentToPeer)
attr title "packets sent: with retry, packetBytes"
vector 115 WiredAndWirelessHostsWithAP.wirelessHost2.wlan[0].mac.dcf packetSentToPeerWithoutRetry:vector(packetBytes) ETV
attr interpolationmode none
attr recordingmode vector(packetBytes)
attr source ieee80211NotRetry(packetSentToPeer)
attr title "packets sent: without retry, packetBytes"
vector 116 WiredAndWirelessHostsWithAP.wirelessHost2.wlan[0].mac.dcf packetReceivedFromPeer:vector(packetBytes) ETV
attr interpolationmode none
attr recordingmode vector(packetBytes)
attr title "packets received, packetBytes"
vector 117 WiredAndWirelessHostsWithAP.wirelessHost2.wlan[0].mac.dcf packetReceivedFromPeerUnicast:vector(packetBytes) ETV
attr interpolationmode none
attr recordingmode vector(packetBytes)
attr source ieee80211Unicast(packetReceivedFromPeer)
attr title "packets received: unicast, packetBytes"
vector 118 WiredAndWirelessHostsWithAP.wirelessHost2.wlan[0].mac.dcf packetReceivedFromPeerMulticast:vector(packetBytes) ETV
attr interpolationmode none
attr recordingmode vector(packetBytes)
attr source ieee80211Multicast(packetReceivedFromPeer)
attr title "packets received: multicast, packetBytes"
vector 119 WiredAndWirelessHostsWithAP.wirelessHost2.wlan[0].mac.dcf packetReceivedFromPeerBroadcast:vector(packetBytes) ETV
attr interpolationmode none
attr recordingmode vector(packetBytes)
attr source ieee80211Broadcast(packetReceivedFromPeer)
attr title "packets received: broadcast, packetBytes"
vector 120 WiredAndWirelessHostsWithAP.wirelessHost2.wlan[0].mac.dcf packetReceivedFromPeerWithRetry:vector(packetBytes) ETV
attr interpolationmode none
attr recordingmode vector(packetBytes)
attr source ieee80211Retry(packetReceivedFromPeer)
attr title "packets received: with retry, packetBytes"
vector 121 WiredAndWirelessHostsWithAP.wirelessHost2.wlan[0].mac.dcf packetReceivedFromPeerWithoutRetry:vector(packetBytes) ETV
attr interpolationmode none
attr recordingmode vector(packetBytes)
attr source ieee80211NotRetry(packetReceivedFromPeer)
attr title "packets received: without retry, packetBytes"
vector 122 WiredAndWirelessHostsWithAP.wirelessHost2.wlan[0].mac.dcf packetDrop:vector(packetBytes) ETV
attr interpolationmode none
attr recordingmode vector(packetBytes)
attr source packetDropped
attr title "packet drops, packetBytes"
vector 123 WiredAndWirelessHostsWithAP.wirelessHost2.wlan[0].mac.dcf packetDropNotAddressedToUs:vector(packetBytes) ETV
attr interpolationmode none
attr recordingmode vector(packetBytes)
attr source packetDropReasonIsNotAddressedToUs(packetDropped)
attr title "packet drops: not addressed to us, packetBytes"
vector 124 WiredAndWirelessHostsWithAP.wirelessHost2.wlan[0].mac.dcf packetDropQueueOverflow:vector(packetBytes) ETV
attr interpolationmode none
attr recordingmode vector(packetBytes)
attr source packetDropReasonIsQueueOverflow(packetDropped)
attr title "packet drops: queue overflow, packetBytes"
vector 125 WiredAndWirelessHostsWithAP.wirelessHost2.wlan[0].mac.dcf packetDropRetryLimitReached:vector(packetBytes) ETV
attr interpolationmode none
attr recordingmode vector(packetBytes)
attr source packetDropReasonIsRetryLimitReached(packetDropped)
attr title "packet drops: retry limit reached, packetBytes"
vector 126 WiredAndWirelessHostsWithAP.wirelessHost2.wlan[0].mac.dcf frameSequenceActive:vector ETV
attr autoWarmupFilter false
attr interpolationmode sample-hold
attr recordingmode vector
attr source warmup(count(frameSequenceStarted)-count(frameSequenceFinished))
attr title "frame sequence active"
vector 127 WiredAndWirelessHostsWithAP.wirelessHost2.wlan[0].mac.dcf datarateSelected:vector ETV
attr interpolationmode none
attr recordingmode vector
attr title "datarates selected"
vector 128 WiredAndWirelessHostsWithAP.wirelessHost2.wlan[0].mac.rx nav:vector ETV
attr interpolationmode linear
attr recordingmode vector
attr source navChanged
attr title "network allocation vector"
vector 129 WiredAndWirelessHostsWithAP.wirelessHost2.wlan[0].mac packetSentToUpper:vector(packetBytes) ETV
attr interpolationmode none
attr recordingmode vector(packetBytes)
attr title "packets sent to upper layer, packetBytes"
vector 130 WiredAndWirelessHostsWithAP.wirelessHost2.wlan[0].mac packetSentToLower:vector(packetBytes) ETV
attr interpolationmode none
attr recordingmode vector(packetBytes)
attr title "packets sent to lower layer, packetBytes"
vector 131 WiredAndWirelessHostsWithAP.wirelessHost2.wlan[0].mac packetReceivedFromUpper:vector(packetBytes) ETV
attr interpolationmode none
attr recordingmode vector(packetBytes)
attr title "packets received from upper layer, packetBytes"
vector 132 WiredAndWirelessHostsWithAP.wirelessHost2.wlan[0].mac packetReceivedFromLower:vector(packetBytes) ETV
attr interpolationmode none
attr recordingmode vector(packetBytes)
attr title "packets received from lower layer, packetBytes"
vector 133 WiredAndWirelessHostsWithAP.wirelessHost2.wlan[0].mac packetDrop:vector(packetBytes) ETV
attr interpolationmode none
attr recordingmode vector(packetBytes)
attr source packetDropped
attr title "packet drops, packetBytes"
vector 134 WiredAndWirelessHostsWithAP.wirelessHost2.wlan[0].mac packetDropIncorrectlyReceived:vector(packetBytes) ETV
attr interpolationmode none
attr recordingmode vector(packetBytes)
attr source packetDropReasonIsIncorrectlyReceived(packetDropped)
attr title "packet drops: incorrectly received, packetBytes"
vector 135 WiredAndWirelessHostsWithAP.wirelessHost2.wlan[0].mac packetDropNotAddressedToUs:vector(packetBytes) ETV
attr interpolationmode none
attr recordingmode vector(packetBytes)
attr source packetDropReasonIsNotAddressedToUs(packetDropped)
attr title "packet drops: not addressed to us, packetBytes"
vector 136 WiredAndWirelessHostsWithAP.wirelessHost2.wlan[0].mac packetDropQueueOverflow:vector(packetBytes) ETV
attr interpolationmode none
attr recordingmode vector(packetBytes)
attr source packetDropReasonIsQueueOverflow(packetDropped)
attr title "packet drops: queue overflow, packetBytes"
vector 137 WiredAndWirelessHostsWithAP.wirelessHost2.wlan[0].mac packetDropRetryLimitReached:vector(packetBytes) ETV
attr interpolationmode none
attr recordingmode vector(packetBytes)
attr source packetDropReasonIsRetryLimitReached(packetDropped)
attr title "packet drops: retry limit reached, packetBytes"
vector 138 WiredAndWirelessHostsWithAP.wirelessHost2.wlan[0].mac packetDropDuplicateDetected:vector(packetBytes) ETV
attr interpolationmode none
attr recordingmode vector(packetBytes)
attr source packetDropReasonIsDuplicateDetected(packetDropped)
attr title "packet drops: duplicate detected, packetBytes"
vector 139 WiredAndWirelessHostsWithAP.wirelessHost2.wlan[0].mac packetDropOther:vector(packetBytes) ETV
attr interpolationmode none
attr recordingmode vector(packetBytes)
attr source packetDropReasonIsOther(packetDropped)
attr title "packet drops: other, packetBytes"
vector 140 WiredAndWirelessHostsWithAP.wirelessHost2.wlan[0].radio radioMode:vector ETV
attr interpolationmode sample-hold
attr recordingmode vector
attr source radioModeChanged
attr title "Radio mode"
vector 141 WiredAndWirelessHostsWithAP.wirelessHost2.wlan[0].radio receptionState:vector ETV
attr interpolationmode sample-hold
attr recordingmode vector
attr source receptionStateChanged
attr title "Radio reception state"
vector 142 WiredAndWirelessHostsWithAP.wirelessHost2.wlan[0].radio transmissionState:vector ETV
attr interpolationmode sample-hold
attr recordingmode vector
attr source transmissionStateChanged
attr title "Radio transmission state"
vector 143 WiredAndWirelessHostsWithAP.wirelessHost2.wlan[0].radio radioChannel:vector ETV
attr interpolationmode sample-hold
attr recordingmode vector
attr source radioChannelChanged
attr title "Radio channel"
vector 144 WiredAndWirelessHostsWithAP.wirelessHost2.wlan[0] packetDropInterfaceDown:vector(packetBytes) ETV
attr interpolationmode none
attr recordingmode vector(packetBytes)
attr source packetDropReasonIsInterfaceDown(packetDropped)
attr title "packet drops: interface down, packetBytes"
vector 145 WiredAndWirelessHostsWithAP.wirelessHost2.wlan[0] packetDropNoCarrier:vector(packetBytes) ETV
attr interpolationmode none
attr recordingmode vector(packetBytes)
attr source packetDropReasonIsNoCarrier(packetDropped)
attr title "packet drops: no carrier, packetBytes"
vector 146 WiredAndWirelessHostsWithAP.wirelessHost2.ipv4.ip packetDropAddressResolutionFailed:vector(packetBytes) ETV
attr interpolationmode none
attr recordingmode vector(packetBytes)
attr source packetDropReasonIsAddressResolutionFailed(packetDropped)
attr title "packet drop: address resolution failed, packetBytes"
vector 147 WiredAndWirelessHostsWithAP.wirelessHost2.ipv4.ip packetDropHopLimitReached:vector(packetBytes) ETV
attr interpolationmode none
attr recordingmode vector(packetBytes)
attr source packetDropReasonIsHopLimitReached(packetDropped)
attr title "packet drop: hop limit reached, packetBytes"
vector 148 WiredAndWirelessHostsWithAP.wirelessHost2.ipv4.ip packetDropForwardingDisabled:vector(packetBytes) ETV
attr interpolationmode none
attr recordingmode vector(packetBytes)
attr source packetDropReasonIsForwardingDisabled(packetDropped)
attr title "packet drop: forwarding disabled, packetBytes"
vector 149 WiredAndWirelessHostsWithAP.wirelessHost2.ipv4.ip packetDropNoInterfaceFound:vector(packetBytes) ETV
attr interpolationmode none
attr recordingmode vector(packetBytes)
attr source packetDropReasonIsNoInterfaceFound(packetDropped)
attr title "packet drop: no interface found, packetBytes"
vector 150 WiredAndWirelessHostsWithAP.wirelessHost2.ipv4.ip packetDropNoRouteFound:vector(packetBytes) ETV
attr interpolationmode none
attr recordingmode vector(packetBytes)
attr source packetDropReasonIsNoRouteFound(packetDropped)
attr title "packet drop: no route found, packetBytes"
vector 151 WiredAndWirelessHostsWithAP.wirelessHost2.ipv4.ip packetDropUndefined:vector(packetBytes) ETV
attr interpolationmode none
attr recordingmode vector(packetBytes)
attr source packetDropReasonIsUndefined(packetDropped)
attr title "packet drop: undefined, packetBytes"
vector 152 WiredAndWirelessHostsWithAP.wirelessHost2.ipv4.arp arpRequestSent:vector(packetBytes) ETV
attr recordingmode vector(packetBytes)
attr source arpRequestSent
attr title "ARP request sent, packetBytes"
vector 153 WiredAndWirelessHostsWithAP.wirelessHost2.ipv4.arp arpReplySent:vector(packetBytes) ETV
attr recordingmode vector(packetBytes)
attr source arpReplySent
attr title "ARP replies sent, packetBytes"
vector 154 WiredAndWirelessHostsWithAP.wirelessHost2.udp packetSent:vector(packetBytes) ETV
attr interpolationmode none
attr recordingmode vector(packetBytes)
attr source packetSent
attr title "packets sent, packetBytes"
vector 155 WiredAndWirelessHostsWithAP.wirelessHost2.udp packetReceived:vector(packetBytes) ETV
attr interpolationmode none
attr recordingmode vector(packetBytes)
attr source packetReceived
attr title "packets received, packetBytes"
vector 156 WiredAndWirelessHostsWithAP.wirelessHost2.udp passedUpPk:vector(count) ETV
attr interpolationmode none
attr recordingmode vector(count)
attr source packetSentToUpper
attr title "packets passed up, count"
vector 157 WiredAndWirelessHostsWithAP.wirelessHost2.udp droppedPkWrongPort:vector(count) ETV
attr interpolationmode none
attr recordingmode vector(count)
attr source packetDropReasonIsNoPortFound(packetDropped)
attr title "packets dropped (wrong port), count"
vector 158 WiredAndWirelessHostsWithAP.wirelessHost2.udp droppedPkBadChecksum:vector(count) ETV
attr interpolationmode none
attr recordingmode vector(count)
attr source packetDropReasonIsIncorrectlyReceived(packetDropped)
attr title "packets dropped (checksum error), count"
vector 159 WiredAndWirelessHostsWithAP.wirelessHost2.app[0] echoedPk:vector(packetBytes) ETV
attr interpolationmode none
attr recordingmode vector(packetBytes)
attr source packetSent
attr title "packets echoed, packetBytes"
vector 160 WiredAndWirelessHostsWithAP.wirelessHost2.app[1] rtt:vector ETV
attr interpolationmode none
attr recordingmode vector
attr title "ping round-trip time"
attr unit s
vector 161 WiredAndWirelessHostsWithAP.wirelessHost2.app[1] numLost:vector ETV
attr interpolationmode none
attr recordingmode vector
attr title "pings lost"
vector 162 WiredAndWirelessHostsWithAP.wirelessHost2.app[1] numOutOfOrderArrivals:vector ETV
attr interpolationmode none
attr recordingmode vector
attr title "ping out-of-order arrivals"
vector 163 WiredAndWirelessHostsWithAP.wirelessHost2.app[1] pingTxSeq:vector ETV
attr interpolationmode none
attr recordingmode vector
attr title "ping tx seq"
vector 164 WiredAndWirelessHostsWithAP.wirelessHost2.app[1] pingRxSeq:vector ETV
attr interpolationmode none
attr recordingmode vector
attr title "ping rx seq"
vector 165 WiredAndWirelessHostsWithAP.wirelessHost2.app[2] rtt:vector ETV
attr interpolationmode none
attr recordingmode vector
attr title "ping round-trip time"
attr unit s
vector 166 WiredAndWirelessHostsWithAP.wirelessHost2.app[2] numLost:vector ETV
attr interpolationmode none
attr recordingmode vector
attr title "pings lost"
vector 167 WiredAndWirelessHostsWithAP.wirelessHost2.app[2] numOutOfOrderArrivals:vector ETV
attr interpolationmode none
attr recordingmode vector
attr title "ping out-of-order arrivals"
vector 168 WiredAndWirelessHostsWithAP.wirelessHost2.app[2] pingTxSeq:vector ETV
attr interpolationmode none
attr recordingmode vector
attr title "ping tx seq"
vector 169 WiredAndWirelessHostsWithAP.wirelessHost2.app[2] pingRxSeq:vector ETV
attr interpolationmode none
attr recordingmode vector
attr title "ping rx seq"
vector 170 WiredAndWirelessHostsWithAP.wirelessHost3.lo[0].lo rcvdPkFromHl:vector(packetBytes) ETV
attr interpolationmode none
attr recordingmode vector(packetBytes)
attr source packetReceivedFromUpper
attr title "packets received from higher layer, packetBytes"
vector 171 WiredAndWirelessHostsWithAP.wirelessHost3.lo[0].lo passedUpPk:vector(packetBytes) ETV
attr interpolationmode none
attr recordingmode vector(packetBytes)
attr source packetSentToUpper
attr title "packets passed to higher layer, packetBytes"
vector 172 WiredAndWirelessHostsWithAP.wirelessHost3.lo[0] packetDropInterfaceDown:vector(packetBytes) ETV
attr interpolationmode none
attr recordingmode vector(packetBytes)
attr source packetDropReasonIsInterfaceDown(packetDropped)
attr title "packet drops: interface down, packetBytes"
vector 173 WiredAndWirelessHostsWithAP.wirelessHost3.lo[0] packetDropNoCarrier:vector(packetBytes) ETV
attr interpolationmode none
attr recordingmode vector(packetBytes)
attr source packetDropReasonIsNoCarrier(packetDropped)
attr title "packet drops: no carrier, packetBytes"
vector 174 WiredAndWirelessHostsWithAP.wirelessHost3.wlan[0].agent sentRequest:vector ETV
attr recordingmode vector
attr title "sent requests"
vector 175 WiredAndWirelessHostsWithAP.wirelessHost3.wlan[0].agent acceptConfirm:vector ETV
attr recordingmode vector
attr title "accepted confirms"
vector 176 WiredAndWirelessHostsWithAP.wirelessHost3.wlan[0].agent dropConfirm:vector ETV
attr recordingmode vector
attr title "dropped confirms"
vector 177 WiredAndWirelessHostsWithAP.wirelessHost3.wlan[0].mac.dcf.channelAccess.pendingQueue queueLength:vector ETV
attr autoWarmupFilter false
attr interpolationmode sample-hold
attr recordingmode vector
attr source "warmup(atomic(constant0(packetPushEnded) + count(packetPushStarted) - count(packetPulled) - count(packetRemoved) - count(packetDropped)))"
attr title "queue length"
attr unit pk
vector 178 WiredAndWirelessHostsWithAP.wirelessHost3.wlan[0].mac.dcf.channelAccess.pendingQueue queueBitLength:vector ETV
attr autoWarmupFilter false
attr interpolationmode sample-hold
attr recordingmode vector
attr source "warmup(atomic(constant0(packetPushEnded) + sum(packetLength(packetPushStarted)) - sum(packetLength(packetPulled)) - sum(packetLength(packetRemoved)) - sum(packetLength(packetDropped))))"
attr title "queue bit length"
attr unit b
vector 179 WiredAndWirelessHostsWithAP.wirelessHost3.wlan[0].mac.dcf.channelAccess.pendingQueue queueingTime:vector ETV
attr interpolationmode none
attr recordingmode vector
attr source queueingTime(packetPulled)
attr title "queueing times"
attr unit s
vector 180 WiredAndWirelessHostsWithAP.wirelessHost3.wlan[0].mac.dcf.channelAccess.pendingQueue incomingPacketLengths:vector ETV
attr interpolationmode none
attr recordingmode vector
attr source packetLength(packetPushStarted)
attr title "incoming packet lengths"
attr unit b
vector 181 WiredAndWirelessHostsWithAP.wirelessHost3.wlan[0].mac.dcf.channelAccess.pendingQueue incomingDataRate:vector ETV
attr interpolationmode linear
attr recordingmode vector
attr source throughput(packetPushStarted)
attr title "incoming datarate"
attr unit bps
vector 182 WiredAndWirelessHostsWithAP.wirelessHost3.wlan[0].mac.dcf.channelAccess.pendingQueue outgoingPacketLengths:vector ETV
attr interpolationmode none
attr recordingmode vector
attr source packetLength(packetPulled)
attr title "outgoing packet lengths"
attr unit b
vector 183 WiredAndWirelessHostsWithAP.wirelessHost3.wlan[0].mac.dcf.channelAccess.pendingQueue outgoingDataRate:vector ETV
attr interpolationmode linear
attr recordingmode vector
attr source throughput(packetPulled)
attr title "outgoing datarate"
attr unit bps
vector 184 WiredAndWirelessHostsWithAP.wirelessHost3.wlan[0].mac.dcf.channelAccess.pendingQueue droppedPacketLengthsQueueOverflow:vector ETV
attr interpolationmode none
attr recordingmode vector
attr source packetLength(packetDropReasonIsQueueOverflow(packetDropped))
attr title "dropped packet lengths: queue overflow"
attr unit b
vector 185 WiredAndWirelessHostsWithAP.wirelessHost3.wlan[0].mac.dcf.channelAccess.pendingQueue flowQueueingTime:vector ETV
attr interpolationmode none
attr recordingmode vector
attr source queueingTime(demuxFlow(packetPulled))
attr title "flow queueing times"
attr unit s
vector 186 WiredAndWirelessHostsWithAP.wirelessHost3.wlan[0].mac.dcf.channelAccess.pendingQueue flowIncomingDataRate:vector ETV
attr interpolationmode linear
attr recordingmode vector
attr source throughput(flowPacketLength(demuxFlow(packetPushStarted)))
attr title "flow specific incoming data rate"
attr unit bps
vector 187 WiredAndWirelessHostsWithAP.wirelessHost3.wlan[0].mac.dcf.channelAccess.pendingQueue flowOutgoingDataRate:vector ETV
attr interpolationmode linear
attr recordingmode vector
attr source throughput(flowPacketLength(demuxFlow(packetPulled)))
attr title "flow specific outgoing data rate"
attr unit bps
vector 188 WiredAndWirelessHostsWithAP.wirelessHost3.wlan[0].mac.dcf.channelAccess.inProgressFrames queueingTime:vector ETV
attr interpolationmode none
attr recordingmode vector
attr source queueingTime(packetDequeued)
attr title "queueing times"
vector 189 WiredAndWirelessHostsWithAP.wirelessHost3.wlan[0].mac.dcf.channelAccess.inProgressFrames queueLength:vector ETV
attr autoWarmupFilter false
attr interpolationmode sample-hold
attr recordingmode vector
attr source "warmup(count(packetEnqueued) - count(packetDequeued))"
attr title "queue length"
vector 190 WiredAndWirelessHostsWithAP.wirelessHost3.wlan[0].mac.dcf.channelAccess.contention backoffPeriodGenerated:vector ETV
attr interpolationmode none
attr recordingmode vector
attr title "backoff periods"
vector 191 WiredAndWirelessHostsWithAP.wirelessHost3.wlan[0].mac.dcf.channelAccess.contention backoffActive:vector ETV
attr autoWarmupFilter false
attr interpolationmode sample-hold
attr recordingmode vector
attr source warmup(count(backoffStarted)-count(backoffStopped))
attr title "backoff active"
vector 192 WiredAndWirelessHostsWithAP.wirelessHost3.wlan[0].mac.dcf.channelAccess.contention stateChanged:vector ETV
attr enum IDLE,DEFER,IFS_AND_BACKOFF
attr interpolationmode none
attr recordingmode vector
attr title "contention state changed"
attr type enum
vector 193 WiredAndWirelessHostsWithAP.wirelessHost3.wlan[0].mac.dcf.recipientMacDataService packetDropDuplicateDetected:vector(packetBytes) ETV
attr interpolationmode none
attr recordingmode vector(packetBytes)
attr source packetDropReasonIsDuplicateDetected(packetDropped)
attr title "packet drops: duplicate detected, packetBytes"
vector 194 WiredAndWirelessHostsWithAP.wirelessHost3.wlan[0].mac.dcf.recoveryProcedure contentionWindowChanged:vector ETV
attr interpolationmode sample-hold
attr recordingmode vector
attr title "contention window"
vector 195 WiredAndWirelessHostsWithAP.wirelessHost3.wlan[0].mac.dcf packetSentToPeer:vector(packetBytes) ETV
attr interpolationmode none
attr recordingmode vector(packetBytes)
attr title "packets sent, packetBytes"
vector 196 WiredAndWirelessHostsWithAP.wirelessHost3.wlan[0].mac.dcf packetSentToPeerUnicast:vector(packetBytes) ETV
attr interpolationmode none
attr recordingmode vector(packetBytes)
attr source ieee80211Unicast(packetSentToPeer)
attr title "packets sent: unicast, packetBytes"
vector 197 WiredAndWirelessHostsWithAP.wirelessHost3.wlan[0].mac.dcf packetSentToPeerMulticast:vector(packetBytes) ETV
attr interpolationmode none
attr recordingmode vector(packetBytes)
attr source ieee80211Multicast(packetSentToPeer)
attr title "packets sent: multicast, packetBytes"
vector 198 WiredAndWirelessHostsWithAP.wirelessHost3.wlan[0].mac.dcf packetSentToPeerBroadcast:vector(packetBytes) ETV
attr interpolationmode none
attr recordingmode vector(packetBytes)
attr source ieee80211Broadcast(packetSentToPeer)
attr title "packets sent: broadcast , packetBytes"
vector 199 WiredAndWirelessHostsWithAP.wirelessHost3.wlan[0].mac.dcf packetSentToPeerWithRetry:vector(packetBytes) ETV
attr interpolationmode none
attr recordingmode vector(packetBytes)
attr source ieee80211Retry(packetSentToPeer)
attr title "packets sent: with retry, packetBytes"
vector 200 WiredAndWirelessHostsWithAP.wirelessHost3.wlan[0].mac.dcf packetSentToPeerWithoutRetry:vector(packetBytes) ETV
attr interpolationmode none
attr recordingmode vector(packetBytes)
attr source ieee80211NotRetry(packetSentToPeer)
attr title "packets sent: without retry, packetBytes"
vector 201 WiredAndWirelessHostsWithAP.wirelessHost3.wlan[0].mac.dcf packetReceivedFromPeer:vector(packetBytes) ETV
attr interpolationmode none
attr recordingmode vector(packetBytes)
attr title "packets received, packetBytes"
vector 202 WiredAndWirelessHostsWithAP.wirelessHost3.wlan[0].mac.dcf packetReceivedFromPeerUnicast:vector(packetBytes) ETV
attr interpolationmode none
attr recordingmode vector(packetBytes)
attr source ieee80211Unicast(packetReceivedFromPeer)
attr title "packets received: unicast, packetBytes"
vector 203 WiredAndWirelessHostsWithAP.wirelessHost3.wlan[0].mac.dcf packetReceivedFromPeerMulticast:vector(packetBytes) ETV
attr interpolationmode none
attr recordingmode vector(packetBytes)
attr source ieee80211Multicast(packetReceivedFromPeer)
attr title "packets received: multicast, packetBytes"
vector 204 WiredAndWirelessHostsWithAP.wirelessHost3.wlan[0].mac.dcf packetReceivedFromPeerBroadcast:vector(packetBytes) ETV
attr interpolationmode none
attr recordingmode vector(packetBytes)
attr source ieee80211Broadcast(packetReceivedFromPeer)
attr title "packets received: broadcast, packetBytes"
vector 205 WiredAndWirelessHostsWithAP.wirelessHost3.wlan[0].mac.dcf packetReceivedFromPeerWithRetry:vector(packetBytes) ETV
attr interpolationmode none
attr recordingmode vector(packetBytes)
attr source ieee80211Retry(packetReceivedFromPeer)
attr title "packets received: with retry, packetBytes"
vector 206 WiredAndWirelessHostsWithAP.wirelessHost3.wlan[0].mac.dcf packetReceivedFromPeerWithoutRetry:vector(packetBytes) ETV
attr interpolationmode none
attr recordingmode vector(packetBytes)
attr source ieee80211NotRetry(packetReceivedFromPeer)
attr title "packets received: without retry, packetBytes"
vector 207 WiredAndWirelessHostsWithAP.wirelessHost3.wlan[0].mac.dcf packetDrop:vector(packetBytes) ETV
attr interpolationmode none
attr recordingmode vector(packetBytes)
attr source packetDropped
attr title "packet drops, packetBytes"
vector 208 WiredAndWirelessHostsWithAP.wirelessHost3.wlan[0].mac.dcf packetDropNotAddressedToUs:vector(packetBytes) ETV
attr interpolationmode none
attr recordingmode vector(packetBytes)
attr source packetDropReasonIsNotAddressedToUs(packetDropped)
attr title "packet drops: not addressed to us, packetBytes"
vector 209 WiredAndWirelessHostsWithAP.wirelessHost3.wlan[0].mac.dcf packetDropQueueOverflow:vector(packetBytes) ETV
attr interpolationmode none
attr recordingmode vector(packetBytes)
attr source packetDropReasonIsQueueOverflow(packetDropped)
attr title "packet drops: queue overflow, packetBytes"
vector 210 WiredAndWirelessHostsWithAP.wirelessHost3.wlan[0].mac.dcf packetDropRetryLimitReached:vector(packetBytes) ETV
attr interpolationmode none
attr recordingmode vector(packetBytes)
attr source packetDropReasonIsRetryLimitReached(packetDropped)
attr title "packet drops: retry limit reached, packetBytes"
vector 211 WiredAndWirelessHostsWithAP.wirelessHost3.wlan[0].mac.dcf frameSequenceActive:vector ETV
attr autoWarmupFilter false
attr interpolationmode sample-hold
attr recordingmode vector
attr source warmup(count(frameSequenceStarted)-count(frameSequenceFinished))
attr title "frame sequence active"
vector 212 WiredAndWirelessHostsWithAP.wirelessHost3.wlan[0].mac.dcf datarateSelected:vector ETV
attr interpolationmode none
attr recordingmode vector
attr title "datarates selected"
vector 213 WiredAndWirelessHostsWithAP.wirelessHost3.wlan[0].mac.rx nav:vector ETV
attr interpolationmode linear
attr recordingmode vector
attr source navChanged
attr title "network allocation vector"
vector 214 WiredAndWirelessHostsWithAP.wirelessHost3.wlan[0].mac packetSentToUpper:vector(packetBytes) ETV
attr interpolationmode none
attr recordingmode vector(packetBytes)
attr title "packets sent to upper layer, packetBytes"
vector 215 WiredAndWirelessHostsWithAP.wirelessHost3.wlan[0].mac packetSentToLower:vector(packetBytes) ETV
attr interpolationmode none
attr recordingmode vector(packetBytes)
attr title "packets sent to lower layer, packetBytes"
vector 216 WiredAndWirelessHostsWithAP.wirelessHost3.wlan[0].mac packetReceivedFromUpper:vector(packetBytes) ETV
attr interpolationmode none
attr recordingmode vector(packetBytes)
attr title "packets received from upper layer, packetBytes"
vector 217 WiredAndWirelessHostsWithAP.wirelessHost3.wlan[0].mac packetReceivedFromLower:vector(packetBytes) ETV
attr interpolationmode none
attr recordingmode vector(packetBytes)
attr title "packets received from lower layer, packetBytes"
vector 218 WiredAndWirelessHostsWithAP.wirelessHost3.wlan[0].mac packetDrop:vector(packetBytes) ETV
attr interpolationmode none
attr recordingmode vector(packetBytes)
attr source packetDropped
attr title "packet drops, packetBytes"
vector 219 WiredAndWirelessHostsWithAP.wirelessHost3.wlan[0].mac packetDropIncorrectlyReceived:vector(packetBytes) ETV
attr interpolationmode none
attr recordingmode vector(packetBytes)
attr source packetDropReasonIsIncorrectlyReceived(packetDropped)
attr title "packet drops: incorrectly received, packetBytes"
vector 220 WiredAndWirelessHostsWithAP.wirelessHost3.wlan[0].mac packetDropNotAddressedToUs:vector(packetBytes) ETV
attr interpolationmode none
attr recordingmode vector(packetBytes)
attr source packetDropReasonIsNotAddressedToUs(packetDropped)
attr title "packet drops: not addressed to us, packetBytes"
vector 221 WiredAndWirelessHostsWithAP.wirelessHost3.wlan[0].mac packetDropQueueOverflow:vector(packetBytes) ETV
attr interpolationmode none
attr recordingmode vector(packetBytes)
attr source packetDropReasonIsQueueOverflow(packetDropped)
attr title "packet drops: queue overflow, packetBytes"
vector 222 WiredAndWirelessHostsWithAP.wirelessHost3.wlan[0].mac packetDropRetryLimitReached:vector(packetBytes) ETV
attr interpolationmode none
attr recordingmode vector(packetBytes)
attr source packetDropReasonIsRetryLimitReached(packetDropped)
attr title "packet drops: retry limit reached, packetBytes"
vector 223 WiredAndWirelessHostsWithAP.wirelessHost3.wlan[0].mac packetDropDuplicateDetected:vector(packetBytes) ETV
attr interpolationmode none
attr recordingmode vector(packetBytes)
attr source packetDropReasonIsDuplicateDetected(packetDropped)
attr title "packet drops: duplicate detected, packetBytes"
vector 224 WiredAndWirelessHostsWithAP.wirelessHost3.wlan[0].mac packetDropOther:vector(packetBytes) ETV
attr interpolationmode none
attr recordingmode vector(packetBytes)
attr source packetDropReasonIsOther(packetDropped)
attr title "packet drops: other, packetBytes"
vector 225 WiredAndWirelessHostsWithAP.wirelessHost3.wlan[0].radio radioMode:vector ETV
attr interpolationmode sample-hold
attr recordingmode vector
attr source radioModeChanged
attr title "Radio mode"
vector 226 WiredAndWirelessHostsWithAP.wirelessHost3.wlan[0].radio receptionState:vector ETV
attr interpolationmode sample-hold
attr recordingmode vector
attr source receptionStateChanged
attr title "Radio reception state"
vector 227 WiredAndWirelessHostsWithAP.wirelessHost3.wlan[0].radio transmissionState:vector ETV
attr interpolationmode sample-hold
attr recordingmode vector
attr source transmissionStateChanged
attr title "Radio transmission state"
vector 228 WiredAndWirelessHostsWithAP.wirelessHost3.wlan[0].radio radioChannel:vector ETV
attr interpolationmode sample-hold
attr recordingmode vector
attr source radioChannelChanged
attr title "Radio channel"
vector 229 WiredAndWirelessHostsWithAP.wirelessHost3.wlan[0] packetDropInterfaceDown:vector(packetBytes) ETV
attr interpolationmode none
attr recordingmode vector(packetBytes)
attr source packetDropReasonIsInterfaceDown(packetDropped)
attr title "packet drops: interface down, packetBytes"
vector 230 WiredAndWirelessHostsWithAP.wirelessHost3.wlan[0] packetDropNoCarrier:vector(packetBytes) ETV
attr interpolationmode none
attr recordingmode vector(packetBytes)
attr source packetDropReasonIsNoCarrier(packetDropped)
attr title "packet drops: no carrier, packetBytes"
vector 231 WiredAndWirelessHostsWithAP.wirelessHost3.ipv4.ip packetDropAddressResolutionFailed:vector(packetBytes) ETV
attr interpolationmode none
attr recordingmode vector(packetBytes)
attr source packetDropReasonIsAddressResolutionFailed(packetDropped)
attr title "packet drop: address resolution failed, packetBytes"
vector 232 WiredAndWirelessHostsWithAP.wirelessHost3.ipv4.ip packetDropHopLimitReached:vector(packetBytes) ETV
attr interpolationmode none
attr recordingmode vector(packetBytes)
attr source packetDropReasonIsHopLimitReached(packetDropped)
attr title "packet drop: hop limit reached, packetBytes"
vector 233 WiredAndWirelessHostsWithAP.wirelessHost3.ipv4.ip packetDropForwardingDisabled:vector(packetBytes) ETV
attr interpolationmode none
attr recordingmode vector(packetBytes)
attr source packetDropReasonIsForwardingDisabled(packetDropped)
attr title "packet drop: forwarding disabled, packetBytes"
vector 234 WiredAndWirelessHostsWithAP.wirelessHost3.ipv4.ip packetDropNoInterfaceFound:vector(packetBytes) ETV
attr interpolationmode none
attr recordingmode vector(packetBytes)
attr source packetDropReasonIsNoInterfaceFound(packetDropped)
attr title "packet drop: no interface found, packetBytes"
vector 235 WiredAndWirelessHostsWithAP.wirelessHost3.ipv4.ip packetDropNoRouteFound:vector(packetBytes) ETV
attr interpolationmode none
attr recordingmode vector(packetBytes)
attr source packetDropReasonIsNoRouteFound(packetDropped)
attr title "packet drop: no route found, packetBytes"
vector 236 WiredAndWirelessHostsWithAP.wirelessHost3.ipv4.ip packetDropUndefined:vector(packetBytes) ETV
attr interpolationmode none
attr recordingmode vector(packetBytes)
attr source packetDropReasonIsUndefined(packetDropped)
attr title "packet drop: undefined, packetBytes"
vector 237 WiredAndWirelessHostsWithAP.wirelessHost3.ipv4.arp arpRequestSent:vector(packetBytes) ETV
attr recordingmode vector(packetBytes)
attr source arpRequestSent
attr title "ARP request sent, packetBytes"
vector 238 WiredAndWirelessHostsWithAP.wirelessHost3.ipv4.arp arpReplySent:vector(packetBytes) ETV
attr recordingmode vector(packetBytes)
attr source arpReplySent
attr title "ARP replies sent, packetBytes"
vector 239 WiredAndWirelessHostsWithAP.wirelessHost3.udp packetSent:vector(packetBytes) ETV
attr interpolationmode none
attr recordingmode vector(packetBytes)
attr source packetSent
attr title "packets sent, packetBytes"
vector 240 WiredAndWirelessHostsWithAP.wirelessHost3.udp packetReceived:vector(packetBytes) ETV
attr interpolationmode none
attr recordingmode vector(packetBytes)
attr source packetReceived
attr title "packets received, packetBytes"
vector 241 WiredAndWirelessHostsWithAP.wirelessHost3.udp passedUpPk:vector(count) ETV
attr interpolationmode none
attr recordingmode vector(count)
attr source packetSentToUpper
attr title "packets passed up, count"
vector 242 WiredAndWirelessHostsWithAP.wirelessHost3.udp droppedPkWrongPort:vector(count) ETV
attr interpolationmode none
attr recordingmode vector(count)
attr source packetDropReasonIsNoPortFound(packetDropped)
attr title "packets dropped (wrong port), count"
vector 243 WiredAndWirelessHostsWithAP.wirelessHost3.udp droppedPkBadChecksum:vector(count) ETV
attr interpolationmode none
attr recordingmode vector(count)
attr source packetDropReasonIsIncorrectlyReceived(packetDropped)
attr title "packets dropped (checksum error), count"
vector 244 WiredAndWirelessHostsWithAP.wirelessHost3.app[0] echoedPk:vector(packetBytes) ETV
attr interpolationmode none
attr recordingmode vector(packetBytes)
attr source packetSent
attr title "packets echoed, packetBytes"
vector 245 WiredAndWirelessHostsWithAP.wirelessHost3.app[1] rtt:vector ETV
attr interpolationmode none
attr recordingmode vector
attr title "ping round-trip time"
attr unit s
vector 246 WiredAndWirelessHostsWithAP.wirelessHost3.app[1] numLost:vector ETV
attr interpolationmode none
attr recordingmode vector
attr title "pings lost"
vector 247 WiredAndWirelessHostsWithAP.wirelessHost3.app[1] numOutOfOrderArrivals:vector ETV
attr interpolationmode none
attr recordingmode vector
attr title "ping out-of-order arrivals"
vector 248 WiredAndWirelessHostsWithAP.wirelessHost3.app[1] pingTxSeq:vector ETV
attr interpolationmode none
attr recordingmode vector
attr title "ping tx seq"
vector 249 WiredAndWirelessHostsWithAP.wirelessHost3.app[1] pingRxSeq:vector ETV
attr interpolationmode none
attr recordingmode vector
attr title "ping rx seq"
vector 250 WiredAndWirelessHostsWithAP.wirelessHost3.app[2] rtt:vector ETV
attr interpolationmode none
attr recordingmode vector
attr title "ping round-trip time"
attr unit s
vector 251 WiredAndWirelessHostsWithAP.wirelessHost3.app[2] numLost:vector ETV
attr interpolationmode none
attr recordingmode vector
attr title "pings lost"
vector 252 WiredAndWirelessHostsWithAP.wirelessHost3.app[2] numOutOfOrderArrivals:vector ETV
attr interpolationmode none
attr recordingmode vector
attr title "ping out-of-order arrivals"
vector 253 WiredAndWirelessHostsWithAP.wirelessHost3.app[2] pingTxSeq:vector ETV
attr interpolationmode none
attr recordingmode vector
attr title "ping tx seq"
vector 254 WiredAndWirelessHostsWithAP.wirelessHost3.app[2] pingRxSeq:vector ETV
attr interpolationmode none
attr recordingmode vector
attr title "ping rx seq"
vector 255 WiredAndWirelessHostsWithAP.wirelessHost4.lo[0].lo rcvdPkFromHl:vector(packetBytes) ETV
attr interpolationmode none
attr recordingmode vector(packetBytes)
attr source packetReceivedFromUpper
attr title "packets received from higher layer, packetBytes"
vector 256 WiredAndWirelessHostsWithAP.wirelessHost4.lo[0].lo passedUpPk:vector(packetBytes) ETV
attr interpolationmode none
attr recordingmode vector(packetBytes)
attr source packetSentToUpper
attr title "packets passed to higher layer, packetBytes"
vector 257 WiredAndWirelessHostsWithAP.wirelessHost4.lo[0] packetDropInterfaceDown:vector(packetBytes) ETV
attr interpolationmode none
attr recordingmode vector(packetBytes)
attr source packetDropReasonIsInterfaceDown(packetDropped)
attr title "packet drops: interface down, packetBytes"
vector 258 WiredAndWirelessHostsWithAP.wirelessHost4.lo[0] packetDropNoCarrier:vector(packetBytes) ETV
attr interpolationmode none
attr recordingmode vector(packetBytes)
attr source packetDropReasonIsNoCarrier(packetDropped)
attr title "packet drops: no carrier, packetBytes"
vector 259 WiredAndWirelessHostsWithAP.wirelessHost4.wlan[0].agent sentRequest:vector ETV
attr recordingmode vector
attr title "sent requests"
vector 260 WiredAndWirelessHostsWithAP.wirelessHost4.wlan[0].agent acceptConfirm:vector ETV
attr recordingmode vector
attr title "accepted confirms"
vector 261 WiredAndWirelessHostsWithAP.wirelessHost4.wlan[0].agent dropConfirm:vector ETV
attr recordingmode vector
attr title "dropped confirms"
vector 262 WiredAndWirelessHostsWithAP.wirelessHost4.wlan[0].mac.dcf.channelAccess.pendingQueue queueLength:vector ETV
attr autoWarmupFilter false
attr interpolationmode sample-hold
attr recordingmode vector
attr source "warmup(atomic(constant0(packetPushEnded) + count(packetPushStarted) - count(packetPulled) - count(packetRemoved) - count(packetDropped)))"
attr title "queue length"
attr unit pk
vector 263 WiredAndWirelessHostsWithAP.wirelessHost4.wlan[0].mac.dcf.channelAccess.pendingQueue queueBitLength:vector ETV
attr autoWarmupFilter false
attr interpolationmode sample-hold
attr recordingmode vector
attr source "warmup(atomic(constant0(packetPushEnded) + sum(packetLength(packetPushStarted)) - sum(packetLength(packetPulled)) - sum(packetLength(packetRemoved)) - sum(packetLength(packetDropped))))"
attr title "queue bit length"
attr unit b
vector 264 WiredAndWirelessHostsWithAP.wirelessHost4.wlan[0].mac.dcf.channelAccess.pendingQueue queueingTime:vector ETV
attr interpolationmode none
attr recordingmode vector
attr source queueingTime(packetPulled)
attr title "queueing times"
attr unit s
vector 265 WiredAndWirelessHostsWithAP.wirelessHost4.wlan[0].mac.dcf.channelAccess.pendingQueue incomingPacketLengths:vector ETV
attr interpolationmode none
attr recordingmode vector
attr source packetLength(packetPushStarted)
attr title "incoming packet lengths"
attr unit b
vector 266 WiredAndWirelessHostsWithAP.wirelessHost4.wlan[0].mac.dcf.channelAccess.pendingQueue incomingDataRate:vector ETV
attr interpolationmode linear
attr recordingmode vector
attr source throughput(packetPushStarted)
attr title "incoming datarate"
attr unit bps
vector 267 WiredAndWirelessHostsWithAP.wirelessHost4.wlan[0].mac.dcf.channelAccess.pendingQueue outgoingPacketLengths:vector ETV
attr interpolationmode none
attr recordingmode vector
attr source packetLength(packetPulled)
attr title "outgoing packet lengths"
attr unit b
vector 268 WiredAndWirelessHostsWithAP.wirelessHost4.wlan[0].mac.dcf.channelAccess.pendingQueue outgoingDataRate:vector ETV
attr interpolationmode linear
attr recordingmode vector
attr source throughput(packetPulled)
attr title "outgoing datarate"
attr unit bps
vector 269 WiredAndWirelessHostsWithAP.wirelessHost4.wlan[0].mac.dcf.channelAccess.pendingQueue droppedPacketLengthsQueueOverflow:vector ETV
attr interpolationmode none
attr recordingmode vector
attr source packetLength(packetDropReasonIsQueueOverflow(packetDropped))
attr title "dropped packet lengths: queue overflow"
attr unit b
vector 270 WiredAndWirelessHostsWithAP.wirelessHost4.wlan[0].mac.dcf.channelAccess.pendingQueue flowQueueingTime:vector ETV
attr interpolationmode none
attr recordingmode vector
attr source queueingTime(demuxFlow(packetPulled))
attr title "flow queueing times"
attr unit s
vector 271 WiredAndWirelessHostsWithAP.wirelessHost4.wlan[0].mac.dcf.channelAccess.pendingQueue flowIncomingDataRate:vector ETV
attr interpolationmode linear
attr recordingmode vector
attr source throughput(flowPacketLength(demuxFlow(packetPushStarted)))
attr title "flow specific incoming data rate"
attr unit bps
vector 272 WiredAndWirelessHostsWithAP.wirelessHost4.wlan[0].mac.dcf.channelAccess.pendingQueue flowOutgoingDataRate:vector ETV
attr interpolationmode linear
attr recordingmode vector
attr source throughput(flowPacketLength(demuxFlow(packetPulled)))
attr title "flow specific outgoing data rate"
attr unit bps
vector 273 WiredAndWirelessHostsWithAP.wirelessHost4.wlan[0].mac.dcf.channelAccess.inProgressFrames queueingTime:vector ETV
attr interpolationmode none
attr recordingmode vector
attr source queueingTime(packetDequeued)
attr title "queueing times"
vector 274 WiredAndWirelessHostsWithAP.wirelessHost4.wlan[0].mac.dcf.channelAccess.inProgressFrames queueLength:vector ETV
attr autoWarmupFilter false
attr interpolationmode sample-hold
attr recordingmode vector
attr source "warmup(count(packetEnqueued) - count(packetDequeued))"
attr title "queue length"
vector 275 WiredAndWirelessHostsWithAP.wirelessHost4.wlan[0].mac.dcf.channelAccess.contention backoffPeriodGenerated:vector ETV
attr interpolationmode none
attr recordingmode vector
attr title "backoff periods"
vector 276 WiredAndWirelessHostsWithAP.wirelessHost4.wlan[0].mac.dcf.channelAccess.contention backoffActive:vector ETV
attr autoWarmupFilter false
attr interpolationmode sample-hold
attr recordingmode vector
attr source warmup(count(backoffStarted)-count(backoffStopped))
attr title "backoff active"
vector 277 WiredAndWirelessHostsWithAP.wirelessHost4.wlan[0].mac.dcf.channelAccess.contention stateChanged:vector ETV
attr enum IDLE,DEFER,IFS_AND_BACKOFF
attr interpolationmode none
attr recordingmode vector
attr title "contention state changed"
attr type enum
vector 278 WiredAndWirelessHostsWithAP.wirelessHost4.wlan[0].mac.dcf.recipientMacDataService packetDropDuplicateDetected:vector(packetBytes) ETV
attr interpolationmode none
attr recordingmode vector(packetBytes)
attr source packetDropReasonIsDuplicateDetected(packetDropped)
attr title "packet drops: duplicate detected, packetBytes"
vector 279 WiredAndWirelessHostsWithAP.wirelessHost4.wlan[0].mac.dcf.recoveryProcedure contentionWindowChanged:vector ETV
attr interpolationmode sample-hold
attr recordingmode vector
attr title "contention window"
vector 280 WiredAndWirelessHostsWithAP.wirelessHost4.wlan[0].mac.dcf packetSentToPeer:vector(packetBytes) ETV
attr interpolationmode none
attr recordingmode vector(packetBytes)
attr title "packets sent, packetBytes"
vector 281 WiredAndWirelessHostsWithAP.wirelessHost4.wlan[0].mac.dcf packetSentToPeerUnicast:vector(packetBytes) ETV
attr interpolationmode none
attr recordingmode vector(packetBytes)
attr source ieee80211Unicast(packetSentToPeer)
attr title "packets sent: unicast, packetBytes"
vector 282 WiredAndWirelessHostsWithAP.wirelessHost4.wlan[0].mac.dcf packetSentToPeerMulticast:vector(packetBytes) ETV
attr interpolationmode none
attr recordingmode vector(packetBytes)
attr source ieee80211Multicast(packetSentToPeer)
attr title "packets sent: multicast, packetBytes"
vector 283 WiredAndWirelessHostsWithAP.wirelessHost4.wlan[0].mac.dcf packetSentToPeerBroadcast:vector(packetBytes) ETV
attr interpolationmode none
attr recordingmode vector(packetBytes)
attr source ieee80211Broadcast(packetSentToPeer)
attr title "packets sent: broadcast , packetBytes"
vector 284 WiredAndWirelessHostsWithAP.wirelessHost4.wlan[0].mac.dcf packetSentToPeerWithRetry:vector(packetBytes) ETV
attr interpolationmode none
attr recordingmode vector(packetBytes)
attr source ieee80211Retry(packetSentToPeer)
attr title "packets sent: with retry, packetBytes"
vector 285 WiredAndWirelessHostsWithAP.wirelessHost4.wlan[0].mac.dcf packetSentToPeerWithoutRetry:vector(packetBytes) ETV
attr interpolationmode none
attr recordingmode vector(packetBytes)
attr source ieee80211NotRetry(packetSentToPeer)
attr title "packets sent: without retry, packetBytes"
vector 286 WiredAndWirelessHostsWithAP.wirelessHost4.wlan[0].mac.dcf packetReceivedFromPeer:vector(packetBytes) ETV
attr interpolationmode none
attr recordingmode vector(packetBytes)
attr title "packets received, packetBytes"
vector 287 WiredAndWirelessHostsWithAP.wirelessHost4.wlan[0].mac.dcf packetReceivedFromPeerUnicast:vector(packetBytes) ETV
attr interpolationmode none
attr recordingmode vector(packetBytes)
attr source ieee80211Unicast(packetReceivedFromPeer)
attr title "packets received: unicast, packetBytes"
vector 288 WiredAndWirelessHostsWithAP.wirelessHost4.wlan[0].mac.dcf packetReceivedFromPeerMulticast:vector(packetBytes) ETV
attr interpolationmode none
attr recordingmode vector(packetBytes)
attr source ieee80211Multicast(packetReceivedFromPeer)
attr title "packets received: multicast, packetBytes"
vector 289 WiredAndWirelessHostsWithAP.wirelessHost4.wlan[0].mac.dcf packetReceivedFromPeerBroadcast:vector(packetBytes) ETV
attr interpolationmode none
attr recordingmode vector(packetBytes)
attr source ieee80211Broadcast(packetReceivedFromPeer)
attr title "packets received: broadcast, packetBytes"
vector 290 WiredAndWirelessHostsWithAP.wirelessHost4.wlan[0].mac.dcf packetReceivedFromPeerWithRetry:vector(packetBytes) ETV
attr interpolationmode none
attr recordingmode vector(packetBytes)
attr source ieee80211Retry(packetReceivedFromPeer)
attr title "packets received: with retry, packetBytes"
vector 291 WiredAndWirelessHostsWithAP.wirelessHost4.wlan[0].mac.dcf packetReceivedFromPeerWithoutRetry:vector(packetBytes) ETV
attr interpolationmode none
attr recordingmode vector(packetBytes)
attr source ieee80211NotRetry(packetReceivedFromPeer)
attr title "packets received: without retry, packetBytes"
vector 292 WiredAndWirelessHostsWithAP.wirelessHost4.wlan[0].mac.dcf packetDrop:vector(packetBytes) ETV
attr interpolationmode none
attr recordingmode vector(packetBytes)
attr source packetDropped
attr title "packet drops, packetBytes"
vector 293 WiredAndWirelessHostsWithAP.wirelessHost4.wlan[0].mac.dcf packetDropNotAddressedToUs:vector(packetBytes) ETV
attr interpolationmode none
attr recordingmode vector(packetBytes)
attr source packetDropReasonIsNotAddressedToUs(packetDropped)
attr title "packet drops: not addressed to us, packetBytes"
vector 294 WiredAndWirelessHostsWithAP.wirelessHost4.wlan[0].mac.dcf packetDropQueueOverflow:vector(packetBytes) ETV
attr interpolationmode none
attr recordingmode vector(packetBytes)
[...]
1202	4562	1.3	0
1202	4562	1.4	0
1202	4562	1.5	0
1202	4562	1.6	0
1202	4562	1.7	0
1202	4562	1.8	0
1202	4562	1.9	0
1202	4562	2	0
1202	4562	2.1	0
1202	4562	2.2	0
1202	4562	2.3	0
1202	4562	2.4	0
1202	4562	2.5	0
1202	4562	2.6	0
1202	4562	2.7	0
1202	4562	2.8	0
1202	4562	2.9	0
1202	4562	3	0
1202	4562	3.1	0
1202	4562	3.2	0
1202	4562	3.3	0
1202	4562	3.4	0
1202	4562	3.5	0
1202	4562	3.6	0
1202	4562	3.7	0
1202	4562	3.8	0
1202	4562	3.9	0
1202	4562	4	0
1202	4562	4.1	0
1202	4562	4.2	0
1202	4562	4.3	0
1202	4562	4.4	0
1202	4562	4.5	0
1202	4562	4.6	0
1202	4562	4.7	0
1202	4562	4.8	0
1202	4562	4.9	0
1202	4562	5	0
1202	4562	5.1	0
1202	4562	5.2	0
1202	4562	5.3	0
1202	4562	5.4	0
1202	4562	5.5	0
1202	4562	5.6	0
1202	4562	5.7	0
1202	4562	5.8	0
1202	4562	5.9	0
1202	4562	6	0
1202	4562	6.1	0
1202	4562	6.2	0
1202	4562	6.3	0
1202	4562	6.4	0
1202	4562	6.5	0
1202	4562	6.6	0
1202	4562	6.7	0
1202	4562	6.8	0
1202	4562	6.9	0
1202	4562	7	0
1202	4562	7.1	0
1202	4562	7.2	0
1202	4562	7.3	0
1202	4562	7.4	0
1202	4562	7.5	0
1202	4562	7.6	0
1202	4562	7.7	0
1202	4562	7.8	0
1202	4562	7.9	0
1202	4562	8	0
1202	4562	8.1	0
1202	4562	8.2	0
1202	4562	8.3	0
1202	4562	8.4	0
1202	4562	8.5	0
1202	4562	8.6	0
1202	4562	8.7	0
1202	4562	8.8	0
1202	4562	8.9	0
1202	4562	9	0
1202	4562	9.1	0
1202	4562	9.2	0
1202	4562	9.3	0
1202	4562	9.4	0
1202	4562	9.5	0
1202	4562	9.6	0
1202	4562	9.7	0
1202	4562	9.8	0
1202	4562	9.858801282712	0
1204	4562	0.1	0
1204	4562	0.2	0
1204	4562	0.3	0
1204	4562	0.4	0
1204	4562	0.5	0
1204	4562	0.6	0
1204	4562	0.7	0
1204	4562	0.8	0
1204	4562	0.9	0
1204	4562	1	0
1204	4562	1.1	0
1204	4562	1.2	0
1204	4562	1.3	0
1204	4562	1.4	0
1204	4562	1.5	0
1204	4562	1.6	0
1204	4562	1.7	0
1204	4562	1.8	0
1204	4562	1.9	0
1204	4562	2	0
1204	4562	2.1	0
1204	4562	2.2	0
1204	4562	2.3	0
1204	4562	2.4	0
1204	4562	2.5	0
1204	4562	2.6	0
1204	4562	2.7	0
1204	4562	2.8	0
1204	4562	2.9	0
1204	4562	3	0
1204	4562	3.1	0
1204	4562	3.2	0
1204	4562	3.3	0
1204	4562	3.4	0
1204	4562	3.5	0
1204	4562	3.6	0
1204	4562	3.7	0
1204	4562	3.8	0
1204	4562	3.9	0
1204	4562	4	0
1204	4562	4.1	0
1204	4562	4.2	0
1204	4562	4.3	0
1204	4562	4.4	0
1204	4562	4.5	0
1204	4562	4.6	0
1204	4562	4.7	0
1204	4562	4.8	0
1204	4562	4.9	0
1204	4562	5	0
1204	4562	5.1	0
1204	4562	5.2	0
1204	4562	5.3	0
1204	4562	5.4	0
1204	4562	5.5	0
1204	4562	5.6	0
1204	4562	5.7	0
1204	4562	5.8	0
1204	4562	5.9	0
1204	4562	6	0
1204	4562	6.1	0
1204	4562	6.2	0
1204	4562	6.3	0
1204	4562	6.4	0
1204	4562	6.5	0
1204	4562	6.6	0
1204	4562	6.7	0
1204	4562	6.8	0
1204	4562	6.9	0
1204	4562	7	0
1204	4562	7.1	0
1204	4562	7.2	0
1204	4562	7.3	0
1204	4562	7.4	0
1204	4562	7.5	0
1204	4562	7.6	0
1204	4562	7.7	0
1204	4562	7.8	0
1204	4562	7.9	0
1204	4562	8	0
1204	4562	8.1	0
1204	4562	8.2	0
1204	4562	8.3	0
1204	4562	8.4	0
1204	4562	8.5	0
1204	4562	8.6	0
1204	4562	8.7	0
1204	4562	8.8	0
1204	4562	8.9	0
1204	4562	9	0
1204	4562	9.1	0
1204	4562	9.2	0
1204	4562	9.3	0
1204	4562	9.4	0
1204	4562	9.5	0
1204	4562	9.6	0
1204	4562	9.7	0
1204	4562	9.8	0
1204	4562	9.858801282712	0
1224	4562	0.1	0
1224	4562	0.2	0
1224	4562	0.3	0
1224	4562	0.4	0
1224	4562	0.5	0
1224	4562	0.6	0
1224	4562	0.7	0
1224	4562	0.8	0
1224	4562	0.9	0
1224	4562	1	0
1224	4562	1.1	0
1224	4562	1.2	0
1224	4562	1.3	0
1224	4562	1.4	0
1224	4562	1.5	0
1224	4562	1.6	0
1224	4562	1.7	0
1224	4562	1.8	0
1224	4562	1.9	0
1224	4562	2	0
1224	4562	2.1	0
1224	4562	2.2	0
1224	4562	2.3	0
1224	4562	2.4	0
1224	4562	2.5	0
1224	4562	2.6	0
1224	4562	2.7	0
1224	4562	2.8	0
1224	4562	2.9	0
1224	4562	3	0
1224	4562	3.1	0
1224	4562	3.2	0
1224	4562	3.3	0
1224	4562	3.4	0
1224	4562	3.5	0
1224	4562	3.6	0
1224	4562	3.7	0
1224	4562	3.8	0
1224	4562	3.9	0
1224	4562	4	0
1224	4562	4.1	0
1224	4562	4.2	0
1224	4562	4.3	0
1224	4562	4.4	0
1224	4562	4.5	0
1224	4562	4.6	0
1224	4562	4.7	0
1224	4562	4.8	0
1224	4562	4.9	0
1224	4562	5	0
1224	4562	5.1	0
1224	4562	5.2	0
1224	4562	5.3	0
1224	4562	5.4	0
1224	4562	5.5	0
1224	4562	5.6	0
1224	4562	5.7	0
1224	4562	5.8	0
1224	4562	5.9	0
1224	4562	6	0
1224	4562	6.1	0
1224	4562	6.2	0
1224	4562	6.3	0
1224	4562	6.4	0
1224	4562	6.5	0
1224	4562	6.6	0
1224	4562	6.7	0
1224	4562	6.8	0
1224	4562	6.9	0
1224	4562	7	0
1224	4562	7.1	0
1224	4562	7.2	0
1224	4562	7.3	0
1224	4562	7.4	0
1224	4562	7.5	0
1224	4562	7.6	0
1224	4562	7.7	0
1224	4562	7.8	0
1224	4562	7.9	0
1224	4562	8	0
1224	4562	8.1	0
1224	4562	8.2	0
1224	4562	8.3	0
1224	4562	8.4	0
1224	4562	8.5	0
1224	4562	8.6	0
1224	4562	8.7	0
1224	4562	8.8	0
1224	4562	8.9	0
1224	4562	9	0
1224	4562	9.1	0
1224	4562	9.2	0
1224	4562	9.3	0
1224	4562	9.4	0
1224	4562	9.5	0
1224	4562	9.6	0
1224	4562	9.7	0
1224	4562	9.8	0
1224	4562	9.858801282712	0
1226	4562	0.1	0
1226	4562	0.2	0
1226	4562	0.3	0
1226	4562	0.4	0
1226	4562	0.5	0
1226	4562	0.6	0
1226	4562	0.7	0
1226	4562	0.8	0
1226	4562	0.9	0
1226	4562	1	0
1226	4562	1.1	0
1226	4562	1.2	0
1226	4562	1.3	0
1226	4562	1.4	0
1226	4562	1.5	0
1226	4562	1.6	0
1226	4562	1.7	0
1226	4562	1.8	0
1226	4562	1.9	0
1226	4562	2	0
1226	4562	2.1	0
1226	4562	2.2	0
1226	4562	2.3	0
1226	4562	2.4	0
1226	4562	2.5	0
1226	4562	2.6	0
1226	4562	2.7	0
1226	4562	2.8	0
1226	4562	2.9	0
1226	4562	3	0
1226	4562	3.1	0
1226	4562	3.2	0
1226	4562	3.3	0
1226	4562	3.4	0
1226	4562	3.5	0
1226	4562	3.6	0
1226	4562	3.7	0
1226	4562	3.8	0
1226	4562	3.9	0
1226	4562	4	0
1226	4562	4.1	0
1226	4562	4.2	0
1226	4562	4.3	0
1226	4562	4.4	0
1226	4562	4.5	0
1226	4562	4.6	0
1226	4562	4.7	0
1226	4562	4.8	0
1226	4562	4.9	0
1226	4562	5	0
1226	4562	5.1	0
1226	4562	5.2	0
1226	4562	5.3	0
1226	4562	5.4	0
1226	4562	5.5	0
1226	4562	5.6	0
1226	4562	5.7	0
1226	4562	5.8	0
1226	4562	5.9	0
1226	4562	6	0
1226	4562	6.1	0
1226	4562	6.2	0
1226	4562	6.3	0
1226	4562	6.4	0
1226	4562	6.5	0
1226	4562	6.6	0
1226	4562	6.7	0
1226	4562	6.8	0
1226	4562	6.9	0
1226	4562	7	0
1226	4562	7.1	0
1226	4562	7.2	0
1226	4562	7.3	0
1226	4562	7.4	0
1226	4562	7.5	0
1226	4562	7.6	0
1226	4562	7.7	0
1226	4562	7.8	0
1226	4562	7.9	0
1226	4562	8	0
1226	4562	8.1	0
1226	4562	8.2	0
1226	4562	8.3	0
1226	4562	8.4	0
1226	4562	8.5	0
1226	4562	8.6	0
1226	4562	8.7	0
1226	4562	8.8	0
1226	4562	8.9	0
1226	4562	9	0
1226	4562	9.1	0
1226	4562	9.2	0
1226	4562	9.3	0
1226	4562	9.4	0
1226	4562	9.5	0
1226	4562	9.6	0
1226	4562	9.7	0
1226	4562	9.8	0
1226	4562	9.858801282712	0
1246	4562	0.1	0
1246	4562	0.2	0
1246	4562	0.3	0
1246	4562	0.4	0
1246	4562	0.5	0
1246	4562	0.6	0
1246	4562	0.7	0
1246	4562	0.8	0
1246	4562	0.9	0
1246	4562	1	0
1246	4562	1.1	0
1246	4562	1.2	0
1246	4562	1.3	0
1246	4562	1.4	0
1246	4562	1.5	0
1246	4562	1.6	0
1246	4562	1.7	0
1246	4562	1.8	0
1246	4562	1.9	0
1246	4562	2	0
1246	4562	2.1	0
1246	4562	2.2	0
1246	4562	2.3	0
1246	4562	2.4	0
1246	4562	2.5	0
1246	4562	2.6	0
1246	4562	2.7	0
1246	4562	2.8	0
1246	4562	2.9	0
1246	4562	3	0
1246	4562	3.1	0
1246	4562	3.2	0
1246	4562	3.3	0
1246	4562	3.4	0
1246	4562	3.5	0
1246	4562	3.6	0
1246	4562	3.7	0
1246	4562	3.8	0
1246	4562	3.9	0
1246	4562	4	0
1246	4562	4.1	0
1246	4562	4.2	0
1246	4562	4.3	0
1246	4562	4.4	0
1246	4562	4.5	0
1246	4562	4.6	0
1246	4562	4.7	0
1246	4562	4.8	0
1246	4562	4.9	0
1246	4562	5	0
1246	4562	5.1	0
1246	4562	5.2	0
1246	4562	5.3	0
1246	4562	5.4	0
1246	4562	5.5	0
1246	4562	5.6	0
1246	4562	5.7	0
1246	4562	5.8	0
1246	4562	5.9	0
1246	4562	6	0
1246	4562	6.1	0
1246	4562	6.2	0
1246	4562	6.3	0
1246	4562	6.4	0
1246	4562	6.5	0
1246	4562	6.6	0
1246	4562	6.7	0
1246	4562	6.8	0
1246	4562	6.9	0
1246	4562	7	0
1246	4562	7.1	0
1246	4562	7.2	0
1246	4562	7.3	0
1246	4562	7.4	0
1246	4562	7.5	0
1246	4562	7.6	0
1246	4562	7.7	0
1246	4562	7.8	0
1246	4562	7.9	0
1246	4562	8	0
1246	4562	8.1	0
1246	4562	8.2	0
1246	4562	8.3	0
1246	4562	8.4	0
1246	4562	8.5	0
1246	4562	8.6	0
1246	4562	8.7	0
1246	4562	8.8	0
1246	4562	8.9	0
1246	4562	9	0
1246	4562	9.1	0
1246	4562	9.2	0
1246	4562	9.3	0
1246	4562	9.4	0
1246	4562	9.5	0
1246	4562	9.6	0
1246	4562	9.7	0
1246	4562	9.8	0
1246	4562	9.858801282712	0
1248	4562	0.1	0
1248	4562	0.2	0
1248	4562	0.3	0
1248	4562	0.4	0
1248	4562	0.5	0
1248	4562	0.6	0
1248	4562	0.7	0
1248	4562	0.8	0
1248	4562	0.9	0
1248	4562	1	0
1248	4562	1.1	0
1248	4562	1.2	0
1248	4562	1.3	0
1248	4562	1.4	0
1248	4562	1.5	0
1248	4562	1.6	0
1248	4562	1.7	0
1248	4562	1.8	0
1248	4562	1.9	0
1248	4562	2	0
1248	4562	2.1	0
1248	4562	2.2	0
1248	4562	2.3	0
1248	4562	2.4	0
1248	4562	2.5	0
1248	4562	2.6	0
1248	4562	2.7	0
1248	4562	2.8	0
1248	4562	2.9	0
1248	4562	3	0
1248	4562	3.1	0
1248	4562	3.2	0
1248	4562	3.3	0
1248	4562	3.4	0
1248	4562	3.5	0
1248	4562	3.6	0
1248	4562	3.7	0
1248	4562	3.8	0
1248	4562	3.9	0
1248	4562	4	0
1248	4562	4.1	0
1248	4562	4.2	0
1248	4562	4.3	0
1248	4562	4.4	0
1248	4562	4.5	0
1248	4562	4.6	0
1248	4562	4.7	0
1248	4562	4.8	0
1248	4562	4.9	0
1248	4562	5	0
1248	4562	5.1	0
1248	4562	5.2	0
1248	4562	5.3	0
1248	4562	5.4	0
1248	4562	5.5	0
1248	4562	5.6	0
1248	4562	5.7	0
1248	4562	5.8	0
1248	4562	5.9	0
1248	4562	6	0
1248	4562	6.1	0
1248	4562	6.2	0
1248	4562	6.3	0
1248	4562	6.4	0
1248	4562	6.5	0
1248	4562	6.6	0
1248	4562	6.7	0
1248	4562	6.8	0
1248	4562	6.9	0
1248	4562	7	0
1248	4562	7.1	0
1248	4562	7.2	0
1248	4562	7.3	0
1248	4562	7.4	0
1248	4562	7.5	0
1248	4562	7.6	0
1248	4562	7.7	0
1248	4562	7.8	0
1248	4562	7.9	0
1248	4562	8	0
1248	4562	8.1	0
1248	4562	8.2	0
1248	4562	8.3	0
1248	4562	8.4	0
1248	4562	8.5	0
1248	4562	8.6	0
1248	4562	8.7	0
1248	4562	8.8	0
1248	4562	8.9	0
1248	4562	9	0
1248	4562	9.1	0
1248	4562	9.2	0
1248	4562	9.3	0
1248	4562	9.4	0
1248	4562	9.5	0
1248	4562	9.6	0
1248	4562	9.7	0
1248	4562	9.8	0
1248	4562	9.858801282712	0
1280	4562	9.858801282712	6530.4697838103
1282	4562	9.858801282712	6530.4697838103
1334	4562	0.1	0
1334	4562	0.2	0
1334	4562	0.3	0
1334	4562	0.4	0
1334	4562	0.5	0
1334	4562	0.6	0
1334	4562	0.7	0
1334	4562	0.8	0
1334	4562	0.9	0
1334	4562	1	0
1334	4562	1.1	0
1334	4562	1.2	0
1334	4562	1.3	0
1334	4562	1.4	0
1334	4562	1.5	0
1334	4562	1.6	0
1334	4562	1.7	0
1334	4562	1.8	0
1334	4562	1.9	0
1334	4562	2	0
1334	4562	2.1	0
1334	4562	2.2	0
1334	4562	2.3	0
1334	4562	2.4	0
1334	4562	2.5	0
1334	4562	2.6	0
1334	4562	2.7	0
1334	4562	2.8	0
1334	4562	2.9	0
1334	4562	3	0
1334	4562	3.1	0
1334	4562	3.2	0
1334	4562	3.3	0
1334	4562	3.4	0
1334	4562	3.5	0
1334	4562	3.6	0
1334	4562	3.7	0
1334	4562	3.8	0
1334	4562	3.9	0
1334	4562	4	0
1334	4562	4.1	0
1334	4562	4.2	0
1334	4562	4.3	0
1334	4562	4.4	0
1334	4562	4.5	0
1334	4562	4.6	0
1334	4562	4.7	0
1334	4562	4.8	0
1334	4562	4.9	0
1334	4562	5	0
1334	4562	5.1	0
1334	4562	5.2	0
1334	4562	5.3	0
1334	4562	5.4	0
1334	4562	5.5	0
1334	4562	5.6	0
1334	4562	5.7	0
1334	4562	5.8	0
1334	4562	5.9	0
1334	4562	6	0
1334	4562	6.1	0
1334	4562	6.2	0
1334	4562	6.3	0
1334	4562	6.4	0
1334	4562	6.5	0
1334	4562	6.6	0
1334	4562	6.7	0
1334	4562	6.8	0
1334	4562	6.9	0
1334	4562	7	0
1334	4562	7.1	0
1334	4562	7.2	0
1334	4562	7.3	0
1334	4562	7.4	0
1334	4562	7.5	0
1334	4562	7.6	0
1334	4562	7.7	0
1334	4562	7.8	0
1334	4562	7.9	0
1334	4562	8	0
1334	4562	8.1	0
1334	4562	8.2	0
1334	4562	8.3	0
1334	4562	8.4	0
1334	4562	8.5	0
1334	4562	8.6	0
1334	4562	8.7	0
1334	4562	8.8	0
1334	4562	8.9	0
1334	4562	9	0
1334	4562	9.1	0
1334	4562	9.2	0
1334	4562	9.3	0
1334	4562	9.4	0
1334	4562	9.5	0
1334	4562	9.6	0
1334	4562	9.7	0
1334	4562	9.8	0
1334	4562	9.858801282712	0
1336	4562	0.1	0
1336	4562	0.2	0
1336	4562	0.3	0
1336	4562	0.4	0
1336	4562	0.5	0
1336	4562	0.6	0
1336	4562	0.7	0
1336	4562	0.8	0
1336	4562	0.9	0
1336	4562	1	0
1336	4562	1.1	0
1336	4562	1.2	0
1336	4562	1.3	0
1336	4562	1.4	0
1336	4562	1.5	0
1336	4562	1.6	0
1336	4562	1.7	0
1336	4562	1.8	0
1336	4562	1.9	0
1336	4562	2	0
1336	4562	2.1	0
1336	4562	2.2	0
1336	4562	2.3	0
1336	4562	2.4	0
1336	4562	2.5	0
1336	4562	2.6	0
1336	4562	2.7	0
1336	4562	2.8	0
1336	4562	2.9	0
1336	4562	3	0
1336	4562	3.1	0
1336	4562	3.2	0
1336	4562	3.3	0
1336	4562	3.4	0
1336	4562	3.5	0
1336	4562	3.6	0
1336	4562	3.7	0
1336	4562	3.8	0
1336	4562	3.9	0
1336	4562	4	0
1336	4562	4.1	0
1336	4562	4.2	0
1336	4562	4.3	0
1336	4562	4.4	0
1336	4562	4.5	0
1336	4562	4.6	0
1336	4562	4.7	0
1336	4562	4.8	0
1336	4562	4.9	0
1336	4562	5	0
1336	4562	5.1	0
1336	4562	5.2	0
1336	4562	5.3	0
1336	4562	5.4	0
1336	4562	5.5	0
1336	4562	5.6	0
1336	4562	5.7	0
1336	4562	5.8	0
1336	4562	5.9	0
1336	4562	6	0
1336	4562	6.1	0
1336	4562	6.2	0
1336	4562	6.3	0
1336	4562	6.4	0
1336	4562	6.5	0
1336	4562	6.6	0
1336	4562	6.7	0
1336	4562	6.8	0
1336	4562	6.9	0
1336	4562	7	0
1336	4562	7.1	0
1336	4562	7.2	0
1336	4562	7.3	0
1336	4562	7.4	0
1336	4562	7.5	0
1336	4562	7.6	0
1336	4562	7.7	0
1336	4562	7.8	0
1336	4562	7.9	0
1336	4562	8	0
1336	4562	8.1	0
1336	4562	8.2	0
1336	4562	8.3	0
1336	4562	8.4	0
1336	4562	8.5	0
1336	4562	8.6	0
1336	4562	8.7	0
1336	4562	8.8	0
1336	4562	8.9	0
1336	4562	9	0
1336	4562	9.1	0
1336	4562	9.2	0
1336	4562	9.3	0
1336	4562	9.4	0
1336	4562	9.5	0
1336	4562	9.6	0
1336	4562	9.7	0
1336	4562	9.8	0
1336	4562	9.858801282712	0
1356	4562	0.1	0
1356	4562	0.2	0
1356	4562	0.3	0
1356	4562	0.4	0
1356	4562	0.5	0
1356	4562	0.6	0
1356	4562	0.7	0
1356	4562	0.8	0
1356	4562	0.9	0
1356	4562	1	0
1356	4562	1.1	0
1356	4562	1.2	0
1356	4562	1.3	0
1356	4562	1.4	0
1356	4562	1.5	0
1356	4562	1.6	0
1356	4562	1.7	0
1356	4562	1.8	0
1356	4562	1.9	0
1356	4562	2	0
1356	4562	2.1	0
1356	4562	2.2	0
1356	4562	2.3	0
1356	4562	2.4	0
1356	4562	2.5	0
1356	4562	2.6	0
1356	4562	2.7	0
1356	4562	2.8	0
1356	4562	2.9	0
1356	4562	3	0
1356	4562	3.1	0
1356	4562	3.2	0
1356	4562	3.3	0
1356	4562	3.4	0
1356	4562	3.5	0
1356	4562	3.6	0
1356	4562	3.7	0
1356	4562	3.8	0
1356	4562	3.9	0
1356	4562	4	0
1356	4562	4.1	0
1356	4562	4.2	0
1356	4562	4.3	0
1356	4562	4.4	0
1356	4562	4.5	0
1356	4562	4.6	0
1356	4562	4.7	0
1356	4562	4.8	0
1356	4562	4.9	0
1356	4562	5	0
1356	4562	5.1	0
1356	4562	5.2	0
1356	4562	5.3	0
1356	4562	5.4	0
1356	4562	5.5	0
1356	4562	5.6	0
1356	4562	5.7	0
1356	4562	5.8	0
1356	4562	5.9	0
1356	4562	6	0
1356	4562	6.1	0
1356	4562	6.2	0
1356	4562	6.3	0
1356	4562	6.4	0
1356	4562	6.5	0
1356	4562	6.6	0
1356	4562	6.7	0
1356	4562	6.8	0
1356	4562	6.9	0
1356	4562	7	0
1356	4562	7.1	0
1356	4562	7.2	0
1356	4562	7.3	0
1356	4562	7.4	0
1356	4562	7.5	0
1356	4562	7.6	0
1356	4562	7.7	0
1356	4562	7.8	0
1356	4562	7.9	0
1356	4562	8	0
1356	4562	8.1	0
1356	4562	8.2	0
1356	4562	8.3	0
1356	4562	8.4	0
1356	4562	8.5	0
1356	4562	8.6	0
1356	4562	8.7	0
1356	4562	8.8	0
1356	4562	8.9	0
1356	4562	9	0
1356	4562	9.1	0
1356	4562	9.2	0
1356	4562	9.3	0
1356	4562	9.4	0
1356	4562	9.5	0
1356	4562	9.6	0
1356	4562	9.7	0
1356	4562	9.8	0
1356	4562	9.858801282712	0
1358	4562	0.1	0
1358	4562	0.2	0
1358	4562	0.3	0
1358	4562	0.4	0
1358	4562	0.5	0
1358	4562	0.6	0
1358	4562	0.7	0
1358	4562	0.8	0
1358	4562	0.9	0
1358	4562	1	0
1358	4562	1.1	0
1358	4562	1.2	0
1358	4562	1.3	0
1358	4562	1.4	0
1358	4562	1.5	0
1358	4562	1.6	0
1358	4562	1.7	0
1358	4562	1.8	0
1358	4562	1.9	0
1358	4562	2	0
1358	4562	2.1	0
1358	4562	2.2	0
1358	4562	2.3	0
1358	4562	2.4	0
1358	4562	2.5	0
1358	4562	2.6	0
1358	4562	2.7	0
1358	4562	2.8	0
1358	4562	2.9	0
1358	4562	3	0
1358	4562	3.1	0
1358	4562	3.2	0
1358	4562	3.3	0
1358	4562	3.4	0
1358	4562	3.5	0
1358	4562	3.6	0
1358	4562	3.7	0
1358	4562	3.8	0
1358	4562	3.9	0
1358	4562	4	0
1358	4562	4.1	0
1358	4562	4.2	0
1358	4562	4.3	0
1358	4562	4.4	0
1358	4562	4.5	0
1358	4562	4.6	0
1358	4562	4.7	0
1358	4562	4.8	0
1358	4562	4.9	0
1358	4562	5	0
1358	4562	5.1	0
1358	4562	5.2	0
1358	4562	5.3	0
1358	4562	5.4	0
1358	4562	5.5	0
1358	4562	5.6	0
1358	4562	5.7	0
1358	4562	5.8	0
1358	4562	5.9	0
1358	4562	6	0
1358	4562	6.1	0
1358	4562	6.2	0
1358	4562	6.3	0
1358	4562	6.4	0
1358	4562	6.5	0
1358	4562	6.6	0
1358	4562	6.7	0
1358	4562	6.8	0
1358	4562	6.9	0
1358	4562	7	0
1358	4562	7.1	0
1358	4562	7.2	0
1358	4562	7.3	0
1358	4562	7.4	0
1358	4562	7.5	0
1358	4562	7.6	0
1358	4562	7.7	0
1358	4562	7.8	0
1358	4562	7.9	0
1358	4562	8	0
1358	4562	8.1	0
1358	4562	8.2	0
1358	4562	8.3	0
1358	4562	8.4	0
1358	4562	8.5	0
1358	4562	8.6	0
1358	4562	8.7	0
1358	4562	8.8	0
1358	4562	8.9	0
1358	4562	9	0
1358	4562	9.1	0
1358	4562	9.2	0
1358	4562	9.3	0
1358	4562	9.4	0
1358	4562	9.5	0
1358	4562	9.6	0
1358	4562	9.7	0
1358	4562	9.8	0
1358	4562	9.858801282712	0
1378	4562	0.1	0
1378	4562	0.2	0
1378	4562	0.3	0
1378	4562	0.4	0
1378	4562	0.5	0
1378	4562	0.6	0
1378	4562	0.7	0
1378	4562	0.8	0
1378	4562	0.9	0
1378	4562	1	0
1378	4562	1.1	0
1378	4562	1.2	0
1378	4562	1.3	0
1378	4562	1.4	0
1378	4562	1.5	0
1378	4562	1.6	0
1378	4562	1.7	0
1378	4562	1.8	0
1378	4562	1.9	0
1378	4562	2	0
1378	4562	2.1	0
1378	4562	2.2	0
1378	4562	2.3	0
1378	4562	2.4	0
1378	4562	2.5	0
1378	4562	2.6	0
1378	4562	2.7	0
1378	4562	2.8	0
1378	4562	2.9	0
1378	4562	3	0
1378	4562	3.1	0
1378	4562	3.2	0
1378	4562	3.3	0
1378	4562	3.4	0
1378	4562	3.5	0
1378	4562	3.6	0
1378	4562	3.7	0
1378	4562	3.8	0
1378	4562	3.9	0
1378	4562	4	0
1378	4562	4.1	0
1378	4562	4.2	0
1378	4562	4.3	0
1378	4562	4.4	0
1378	4562	4.5	0
1378	4562	4.6	0
1378	4562	4.7	0
1378	4562	4.8	0
1378	4562	4.9	0
1378	4562	5	0
1378	4562	5.1	0
1378	4562	5.2	0
1378	4562	5.3	0
1378	4562	5.4	0
1378	4562	5.5	0
1378	4562	5.6	0
1378	4562	5.7	0
1378	4562	5.8	0
1378	4562	5.9	0
1378	4562	6	0
1378	4562	6.1	0
1378	4562	6.2	0
1378	4562	6.3	0
1378	4562	6.4	0
1378	4562	6.5	0
1378	4562	6.6	0
1378	4562	6.7	0
1378	4562	6.8	0
1378	4562	6.9	0
1378	4562	7	0
1378	4562	7.1	0
1378	4562	7.2	0
1378	4562	7.3	0
1378	4562	7.4	0
1378	4562	7.5	0
1378	4562	7.6	0
1378	4562	7.7	0
1378	4562	7.8	0
1378	4562	7.9	0
1378	4562	8	0
1378	4562	8.1	0
1378	4562	8.2	0
1378	4562	8.3	0
1378	4562	8.4	0
1378	4562	8.5	0
1378	4562	8.6	0
1378	4562	8.7	0
1378	4562	8.8	0
1378	4562	8.9	0
1378	4562	9	0
1378	4562	9.1	0
1378	4562	9.2	0
1378	4562	9.3	0
1378	4562	9.4	0
1378	4562	9.5	0
1378	4562	9.6	0
1378	4562	9.7	0
1378	4562	9.8	0
1378	4562	9.858801282712	0
1380	4562	0.1	0
1380	4562	0.2	0
1380	4562	0.3	0
1380	4562	0.4	0
1380	4562	0.5	0
1380	4562	0.6	0
1380	4562	0.7	0
1380	4562	0.8	0
1380	4562	0.9	0
1380	4562	1	0
1380	4562	1.1	0
1380	4562	1.2	0
1380	4562	1.3	0
1380	4562	1.4	0
1380	4562	1.5	0
1380	4562	1.6	0
1380	4562	1.7	0
1380	4562	1.8	0
1380	4562	1.9	0
1380	4562	2	0
1380	4562	2.1	0
1380	4562	2.2	0
1380	4562	2.3	0
1380	4562	2.4	0
1380	4562	2.5	0
1380	4562	2.6	0
1380	4562	2.7	0
1380	4562	2.8	0
1380	4562	2.9	0
1380	4562	3	0
1380	4562	3.1	0
1380	4562	3.2	0
1380	4562	3.3	0
1380	4562	3.4	0
1380	4562	3.5	0
1380	4562	3.6	0
1380	4562	3.7	0
1380	4562	3.8	0
1380	4562	3.9	0
1380	4562	4	0
1380	4562	4.1	0
1380	4562	4.2	0
1380	4562	4.3	0
1380	4562	4.4	0
1380	4562	4.5	0
1380	4562	4.6	0
1380	4562	4.7	0
1380	4562	4.8	0
1380	4562	4.9	0
1380	4562	5	0
1380	4562	5.1	0
1380	4562	5.2	0
1380	4562	5.3	0
1380	4562	5.4	0
1380	4562	5.5	0
1380	4562	5.6	0
1380	4562	5.7	0
1380	4562	5.8	0
1380	4562	5.9	0
1380	4562	6	0
1380	4562	6.1	0
1380	4562	6.2	0
1380	4562	6.3	0
1380	4562	6.4	0
1380	4562	6.5	0
1380	4562	6.6	0
1380	4562	6.7	0
1380	4562	6.8	0
1380	4562	6.9	0
1380	4562	7	0
1380	4562	7.1	0
1380	4562	7.2	0
1380	4562	7.3	0
1380	4562	7.4	0
1380	4562	7.5	0
1380	4562	7.6	0
1380	4562	7.7	0
1380	4562	7.8	0
1380	4562	7.9	0
1380	4562	8	0
1380	4562	8.1	0
1380	4562	8.2	0
1380	4562	8.3	0
1380	4562	8.4	0
1380	4562	8.5	0
1380	4562	8.6	0
1380	4562	8.7	0
1380	4562	8.8	0
1380	4562	8.9	0
1380	4562	9	0
1380	4562	9.1	0
1380	4562	9.2	0
1380	4562	9.3	0
1380	4562	9.4	0
1380	4562	9.5	0
1380	4562	9.6	0
1380	4562	9.7	0
1380	4562	9.8	0
1380	4562	9.858801282712	0

