file 527952 1740387359                                          
version 3
run General-0-20250224-12:25:34-11464
attr configname General
attr datetime 20250224-12:25:34
attr datetimef 20250224-122534
attr experiment General
attr inifile omnetpp.ini
attr iterationvars ""
attr iterationvarsd ""
attr iterationvarsf ""
attr measurement ""
attr network sdnproject.WiredAndWirelessHostsWithAP
attr processid 11464
attr repetition 0
attr replication #0
attr resultdir results
attr runnumber 0
attr seedset 0
config image-path ../../../../inet4.5/images
config network sdnproject.WiredAndWirelessHostsWithAP
config sim-time-limit 400s
config **.addDefaultRoutes true
config **.*Server*.numApps 3
config **.*Server*.app[0].typename UdpEchoApp
config **.*Server*.app[0].localPort 1000
config **.*Server*.app[*].typename UdpBasicApp
config **.CoreServer5.app[1].destAddresses "\"mobileServer1\""
config **.CoreServer5.app[2].destAddresses "\"CoreServer1\""
config **.CoreServer1.app[1].destAddresses "\"mobileServer1\""
config **.CoreServer1.app[2].destAddresses "\"CoreServer5\""
config **.mobileServer1.app[1].destAddresses "\"CoreServer5\""
config **.mobileServer1.app[2].destAddresses "\"CoreServer1\""
config **.*Server*.app[1..].destPort 1000
config **.*Server*.app[1..].messageLength 100B
config **.*Server*.app[1..].sendInterval 1s
config **.*Server*.app[1..].stopTime 300s
config **.initialZ 0m
config *.bts.radioMedium.txPower 30mW
config *.bts.radioMedium.centerFrequency 28GHz
config *.bts.wlan[0].radioMedium "\"IRadioMedium\""
config *.bts.wlan[0].radio.transmitter.communicationRange 500m
config *.radioMedium.phyMode "\"OFDM\""
config *.mobileServer1.mobility.typename TractorMobility
config *.mobileServer1.mobility.x1 2000m
config *.mobileServer1.mobility.y1 1542m
config *.mobileServer1.mobility.x2 2100m
config *.mobileServer1.mobility.y2 1800m
config *.mobileServer1.mobility.rowCount 5
config *.mobileServer1.mobility.speed 50mps
config *.mobileServer2.mobility.typename TractorMobility
config *.mobileServer2.mobility.x1 967m
config *.mobileServer2.mobility.y1 1542m
config *.mobileServer2.mobility.x2 1300m
config *.mobileServer2.mobility.y2 1600m
config *.mobileServer2.mobility.rowCount 6
config *.mobileServer2.mobility.speed 80mps
config *.mobileServer3.mobility.typename TractorMobility
config *.mobileServer3.mobility.x1 1179m
config *.mobileServer3.mobility.y1 700m
config *.mobileServer3.mobility.x2 600m
config *.mobileServer3.mobility.y2 300m
config *.mobileServer3.mobility.rowCount 6
config *.mobileServer3.mobility.speed 90mps
config *.mobileServer4.mobility.typename TractorMobility
config *.mobileServer4.mobility.x1 1416m
config *.mobileServer4.mobility.y1 911m
config *.mobileServer4.mobility.x2 1200m
config *.mobileServer4.mobility.y2 500m
config *.mobileServer4.mobility.rowCount 7
config *.mobileServer4.mobility.speed 100mps
config *.bts.wlan[0].radio.displayCommunicationRange true
config *.visualizer.mediumVisualizer.displaySignals true
config *.visualizer.physicalLinkVisualizer.displayLinks true

vector 0 WiredAndWirelessHostsWithAP.mobileServer1.lo[0].lo rcvdPkFromHl:vector(packetBytes) ETV
attr interpolationmode none
attr recordingmode vector(packetBytes)
attr source packetReceivedFromUpper
attr title "packets received from higher layer, packetBytes"
vector 1 WiredAndWirelessHostsWithAP.mobileServer1.lo[0].lo passedUpPk:vector(packetBytes) ETV
attr interpolationmode none
attr recordingmode vector(packetBytes)
attr source packetSentToUpper
attr title "packets passed to higher layer, packetBytes"
vector 2 WiredAndWirelessHostsWithAP.mobileServer1.lo[0] packetDropInterfaceDown:vector(packetBytes) ETV
attr interpolationmode none
attr recordingmode vector(packetBytes)
attr source packetDropReasonIsInterfaceDown(packetDropped)
attr title "packet drops: interface down, packetBytes"
vector 3 WiredAndWirelessHostsWithAP.mobileServer1.lo[0] packetDropNoCarrier:vector(packetBytes) ETV
attr interpolationmode none
attr recordingmode vector(packetBytes)
attr source packetDropReasonIsNoCarrier(packetDropped)
attr title "packet drops: no carrier, packetBytes"
vector 4 WiredAndWirelessHostsWithAP.mobileServer1.wlan[0].agent sentRequest:vector ETV
attr recordingmode vector
attr title "sent requests"
vector 5 WiredAndWirelessHostsWithAP.mobileServer1.wlan[0].agent acceptConfirm:vector ETV
attr recordingmode vector
attr title "accepted confirms"
vector 6 WiredAndWirelessHostsWithAP.mobileServer1.wlan[0].agent dropConfirm:vector ETV
attr recordingmode vector
attr title "dropped confirms"
vector 7 WiredAndWirelessHostsWithAP.mobileServer1.wlan[0].mac.dcf.channelAccess.pendingQueue queueLength:vector ETV
attr autoWarmupFilter false
attr interpolationmode sample-hold
attr recordingmode vector
attr source "warmup(atomic(constant0(packetPushEnded) + count(packetPushStarted) - count(packetPulled) - count(packetRemoved) - count(packetDropped)))"
attr title "queue length"
attr unit pk
vector 8 WiredAndWirelessHostsWithAP.mobileServer1.wlan[0].mac.dcf.channelAccess.pendingQueue queueBitLength:vector ETV
attr autoWarmupFilter false
attr interpolationmode sample-hold
attr recordingmode vector
attr source "warmup(atomic(constant0(packetPushEnded) + sum(packetLength(packetPushStarted)) - sum(packetLength(packetPulled)) - sum(packetLength(packetRemoved)) - sum(packetLength(packetDropped))))"
attr title "queue bit length"
attr unit b
vector 9 WiredAndWirelessHostsWithAP.mobileServer1.wlan[0].mac.dcf.channelAccess.pendingQueue queueingTime:vector ETV
attr interpolationmode none
attr recordingmode vector
attr source queueingTime(packetPulled)
attr title "queueing times"
attr unit s
vector 10 WiredAndWirelessHostsWithAP.mobileServer1.wlan[0].mac.dcf.channelAccess.pendingQueue incomingPacketLengths:vector ETV
attr interpolationmode none
attr recordingmode vector
attr source packetLength(packetPushStarted)
attr title "incoming packet lengths"
attr unit b
vector 11 WiredAndWirelessHostsWithAP.mobileServer1.wlan[0].mac.dcf.channelAccess.pendingQueue incomingDataRate:vector ETV
attr interpolationmode linear
attr recordingmode vector
attr source throughput(packetPushStarted)
attr title "incoming datarate"
attr unit bps
vector 12 WiredAndWirelessHostsWithAP.mobileServer1.wlan[0].mac.dcf.channelAccess.pendingQueue outgoingPacketLengths:vector ETV
attr interpolationmode none
attr recordingmode vector
attr source packetLength(packetPulled)
attr title "outgoing packet lengths"
attr unit b
vector 13 WiredAndWirelessHostsWithAP.mobileServer1.wlan[0].mac.dcf.channelAccess.pendingQueue outgoingDataRate:vector ETV
attr interpolationmode linear
attr recordingmode vector
attr source throughput(packetPulled)
attr title "outgoing datarate"
attr unit bps
vector 14 WiredAndWirelessHostsWithAP.mobileServer1.wlan[0].mac.dcf.channelAccess.pendingQueue droppedPacketLengthsQueueOverflow:vector ETV
attr interpolationmode none
attr recordingmode vector
attr source packetLength(packetDropReasonIsQueueOverflow(packetDropped))
attr title "dropped packet lengths: queue overflow"
attr unit b
vector 15 WiredAndWirelessHostsWithAP.mobileServer1.wlan[0].mac.dcf.channelAccess.pendingQueue flowQueueingTime:vector ETV
attr interpolationmode none
attr recordingmode vector
attr source queueingTime(demuxFlow(packetPulled))
attr title "flow queueing times"
attr unit s
vector 16 WiredAndWirelessHostsWithAP.mobileServer1.wlan[0].mac.dcf.channelAccess.pendingQueue flowIncomingDataRate:vector ETV
attr interpolationmode linear
attr recordingmode vector
attr source throughput(flowPacketLength(demuxFlow(packetPushStarted)))
attr title "flow specific incoming data rate"
attr unit bps
vector 17 WiredAndWirelessHostsWithAP.mobileServer1.wlan[0].mac.dcf.channelAccess.pendingQueue flowOutgoingDataRate:vector ETV
attr interpolationmode linear
attr recordingmode vector
attr source throughput(flowPacketLength(demuxFlow(packetPulled)))
attr title "flow specific outgoing data rate"
attr unit bps
vector 18 WiredAndWirelessHostsWithAP.mobileServer1.wlan[0].mac.dcf.channelAccess.inProgressFrames queueingTime:vector ETV
attr interpolationmode none
attr recordingmode vector
attr source queueingTime(packetDequeued)
attr title "queueing times"
vector 19 WiredAndWirelessHostsWithAP.mobileServer1.wlan[0].mac.dcf.channelAccess.inProgressFrames queueLength:vector ETV
attr autoWarmupFilter false
attr interpolationmode sample-hold
attr recordingmode vector
attr source "warmup(count(packetEnqueued) - count(packetDequeued))"
attr title "queue length"
vector 20 WiredAndWirelessHostsWithAP.mobileServer1.wlan[0].mac.dcf.channelAccess.contention backoffPeriodGenerated:vector ETV
attr interpolationmode none
attr recordingmode vector
attr title "backoff periods"
vector 21 WiredAndWirelessHostsWithAP.mobileServer1.wlan[0].mac.dcf.channelAccess.contention backoffActive:vector ETV
attr autoWarmupFilter false
attr interpolationmode sample-hold
attr recordingmode vector
attr source warmup(count(backoffStarted)-count(backoffStopped))
attr title "backoff active"
vector 22 WiredAndWirelessHostsWithAP.mobileServer1.wlan[0].mac.dcf.channelAccess.contention stateChanged:vector ETV
attr enum IDLE,DEFER,IFS_AND_BACKOFF
attr interpolationmode none
attr recordingmode vector
attr title "contention state changed"
attr type enum
vector 23 WiredAndWirelessHostsWithAP.mobileServer1.wlan[0].mac.dcf.recipientMacDataService packetDropDuplicateDetected:vector(packetBytes) ETV
attr interpolationmode none
attr recordingmode vector(packetBytes)
attr source packetDropReasonIsDuplicateDetected(packetDropped)
attr title "packet drops: duplicate detected, packetBytes"
vector 24 WiredAndWirelessHostsWithAP.mobileServer1.wlan[0].mac.dcf.recoveryProcedure contentionWindowChanged:vector ETV
attr interpolationmode sample-hold
attr recordingmode vector
attr title "contention window"
vector 25 WiredAndWirelessHostsWithAP.mobileServer1.wlan[0].mac.dcf packetSentToPeer:vector(packetBytes) ETV
attr interpolationmode none
attr recordingmode vector(packetBytes)
attr title "packets sent, packetBytes"
vector 26 WiredAndWirelessHostsWithAP.mobileServer1.wlan[0].mac.dcf packetSentToPeerUnicast:vector(packetBytes) ETV
attr interpolationmode none
attr recordingmode vector(packetBytes)
attr source ieee80211Unicast(packetSentToPeer)
attr title "packets sent: unicast, packetBytes"
vector 27 WiredAndWirelessHostsWithAP.mobileServer1.wlan[0].mac.dcf packetSentToPeerMulticast:vector(packetBytes) ETV
attr interpolationmode none
attr recordingmode vector(packetBytes)
attr source ieee80211Multicast(packetSentToPeer)
attr title "packets sent: multicast, packetBytes"
vector 28 WiredAndWirelessHostsWithAP.mobileServer1.wlan[0].mac.dcf packetSentToPeerBroadcast:vector(packetBytes) ETV
attr interpolationmode none
attr recordingmode vector(packetBytes)
attr source ieee80211Broadcast(packetSentToPeer)
attr title "packets sent: broadcast , packetBytes"
vector 29 WiredAndWirelessHostsWithAP.mobileServer1.wlan[0].mac.dcf packetSentToPeerWithRetry:vector(packetBytes) ETV
attr interpolationmode none
attr recordingmode vector(packetBytes)
attr source ieee80211Retry(packetSentToPeer)
attr title "packets sent: with retry, packetBytes"
vector 30 WiredAndWirelessHostsWithAP.mobileServer1.wlan[0].mac.dcf packetSentToPeerWithoutRetry:vector(packetBytes) ETV
attr interpolationmode none
attr recordingmode vector(packetBytes)
attr source ieee80211NotRetry(packetSentToPeer)
attr title "packets sent: without retry, packetBytes"
vector 31 WiredAndWirelessHostsWithAP.mobileServer1.wlan[0].mac.dcf packetReceivedFromPeer:vector(packetBytes) ETV
attr interpolationmode none
attr recordingmode vector(packetBytes)
attr title "packets received, packetBytes"
vector 32 WiredAndWirelessHostsWithAP.mobileServer1.wlan[0].mac.dcf packetReceivedFromPeerUnicast:vector(packetBytes) ETV
attr interpolationmode none
attr recordingmode vector(packetBytes)
attr source ieee80211Unicast(packetReceivedFromPeer)
attr title "packets received: unicast, packetBytes"
vector 33 WiredAndWirelessHostsWithAP.mobileServer1.wlan[0].mac.dcf packetReceivedFromPeerMulticast:vector(packetBytes) ETV
attr interpolationmode none
attr recordingmode vector(packetBytes)
attr source ieee80211Multicast(packetReceivedFromPeer)
attr title "packets received: multicast, packetBytes"
vector 34 WiredAndWirelessHostsWithAP.mobileServer1.wlan[0].mac.dcf packetReceivedFromPeerBroadcast:vector(packetBytes) ETV
attr interpolationmode none
attr recordingmode vector(packetBytes)
attr source ieee80211Broadcast(packetReceivedFromPeer)
attr title "packets received: broadcast, packetBytes"
vector 35 WiredAndWirelessHostsWithAP.mobileServer1.wlan[0].mac.dcf packetReceivedFromPeerWithRetry:vector(packetBytes) ETV
attr interpolationmode none
attr recordingmode vector(packetBytes)
attr source ieee80211Retry(packetReceivedFromPeer)
attr title "packets received: with retry, packetBytes"
vector 36 WiredAndWirelessHostsWithAP.mobileServer1.wlan[0].mac.dcf packetReceivedFromPeerWithoutRetry:vector(packetBytes) ETV
attr interpolationmode none
attr recordingmode vector(packetBytes)
attr source ieee80211NotRetry(packetReceivedFromPeer)
attr title "packets received: without retry, packetBytes"
vector 37 WiredAndWirelessHostsWithAP.mobileServer1.wlan[0].mac.dcf packetDrop:vector(packetBytes) ETV
attr interpolationmode none
attr recordingmode vector(packetBytes)
attr source packetDropped
attr title "packet drops, packetBytes"
vector 38 WiredAndWirelessHostsWithAP.mobileServer1.wlan[0].mac.dcf packetDropNotAddressedToUs:vector(packetBytes) ETV
attr interpolationmode none
attr recordingmode vector(packetBytes)
attr source packetDropReasonIsNotAddressedToUs(packetDropped)
attr title "packet drops: not addressed to us, packetBytes"
vector 39 WiredAndWirelessHostsWithAP.mobileServer1.wlan[0].mac.dcf packetDropQueueOverflow:vector(packetBytes) ETV
attr interpolationmode none
attr recordingmode vector(packetBytes)
attr source packetDropReasonIsQueueOverflow(packetDropped)
attr title "packet drops: queue overflow, packetBytes"
vector 40 WiredAndWirelessHostsWithAP.mobileServer1.wlan[0].mac.dcf packetDropRetryLimitReached:vector(packetBytes) ETV
attr interpolationmode none
attr recordingmode vector(packetBytes)
attr source packetDropReasonIsRetryLimitReached(packetDropped)
attr title "packet drops: retry limit reached, packetBytes"
vector 41 WiredAndWirelessHostsWithAP.mobileServer1.wlan[0].mac.dcf frameSequenceActive:vector ETV
attr autoWarmupFilter false
attr interpolationmode sample-hold
attr recordingmode vector
attr source warmup(count(frameSequenceStarted)-count(frameSequenceFinished))
attr title "frame sequence active"
vector 42 WiredAndWirelessHostsWithAP.mobileServer1.wlan[0].mac.dcf datarateSelected:vector ETV
attr interpolationmode none
attr recordingmode vector
attr title "datarates selected"
vector 43 WiredAndWirelessHostsWithAP.mobileServer1.wlan[0].mac.rx nav:vector ETV
attr interpolationmode linear
attr recordingmode vector
attr source navChanged
attr title "network allocation vector"
vector 44 WiredAndWirelessHostsWithAP.mobileServer1.wlan[0].mac packetSentToUpper:vector(packetBytes) ETV
attr interpolationmode none
attr recordingmode vector(packetBytes)
attr title "packets sent to upper layer, packetBytes"
vector 45 WiredAndWirelessHostsWithAP.mobileServer1.wlan[0].mac packetSentToLower:vector(packetBytes) ETV
attr interpolationmode none
attr recordingmode vector(packetBytes)
attr title "packets sent to lower layer, packetBytes"
vector 46 WiredAndWirelessHostsWithAP.mobileServer1.wlan[0].mac packetReceivedFromUpper:vector(packetBytes) ETV
attr interpolationmode none
attr recordingmode vector(packetBytes)
attr title "packets received from upper layer, packetBytes"
vector 47 WiredAndWirelessHostsWithAP.mobileServer1.wlan[0].mac packetReceivedFromLower:vector(packetBytes) ETV
attr interpolationmode none
attr recordingmode vector(packetBytes)
attr title "packets received from lower layer, packetBytes"
vector 48 WiredAndWirelessHostsWithAP.mobileServer1.wlan[0].mac packetDrop:vector(packetBytes) ETV
attr interpolationmode none
attr recordingmode vector(packetBytes)
attr source packetDropped
attr title "packet drops, packetBytes"
vector 49 WiredAndWirelessHostsWithAP.mobileServer1.wlan[0].mac packetDropIncorrectlyReceived:vector(packetBytes) ETV
attr interpolationmode none
attr recordingmode vector(packetBytes)
attr source packetDropReasonIsIncorrectlyReceived(packetDropped)
attr title "packet drops: incorrectly received, packetBytes"
vector 50 WiredAndWirelessHostsWithAP.mobileServer1.wlan[0].mac packetDropNotAddressedToUs:vector(packetBytes) ETV
attr interpolationmode none
attr recordingmode vector(packetBytes)
attr source packetDropReasonIsNotAddressedToUs(packetDropped)
attr title "packet drops: not addressed to us, packetBytes"
vector 51 WiredAndWirelessHostsWithAP.mobileServer1.wlan[0].mac packetDropQueueOverflow:vector(packetBytes) ETV
attr interpolationmode none
attr recordingmode vector(packetBytes)
attr source packetDropReasonIsQueueOverflow(packetDropped)
attr title "packet drops: queue overflow, packetBytes"
vector 52 WiredAndWirelessHostsWithAP.mobileServer1.wlan[0].mac packetDropRetryLimitReached:vector(packetBytes) ETV
attr interpolationmode none
attr recordingmode vector(packetBytes)
attr source packetDropReasonIsRetryLimitReached(packetDropped)
attr title "packet drops: retry limit reached, packetBytes"
vector 53 WiredAndWirelessHostsWithAP.mobileServer1.wlan[0].mac packetDropDuplicateDetected:vector(packetBytes) ETV
attr interpolationmode none
attr recordingmode vector(packetBytes)
attr source packetDropReasonIsDuplicateDetected(packetDropped)
attr title "packet drops: duplicate detected, packetBytes"
vector 54 WiredAndWirelessHostsWithAP.mobileServer1.wlan[0].mac packetDropOther:vector(packetBytes) ETV
attr interpolationmode none
attr recordingmode vector(packetBytes)
attr source packetDropReasonIsOther(packetDropped)
attr title "packet drops: other, packetBytes"
vector 55 WiredAndWirelessHostsWithAP.mobileServer1.wlan[0].radio radioMode:vector ETV
attr interpolationmode sample-hold
attr recordingmode vector
attr source radioModeChanged
attr title "Radio mode"
vector 56 WiredAndWirelessHostsWithAP.mobileServer1.wlan[0].radio receptionState:vector ETV
attr interpolationmode sample-hold
attr recordingmode vector
attr source receptionStateChanged
attr title "Radio reception state"
vector 57 WiredAndWirelessHostsWithAP.mobileServer1.wlan[0].radio transmissionState:vector ETV
attr interpolationmode sample-hold
attr recordingmode vector
attr source transmissionStateChanged
attr title "Radio transmission state"
vector 58 WiredAndWirelessHostsWithAP.mobileServer1.wlan[0].radio radioChannel:vector ETV
attr interpolationmode sample-hold
attr recordingmode vector
attr source radioChannelChanged
attr title "Radio channel"
vector 59 WiredAndWirelessHostsWithAP.mobileServer1.wlan[0] packetDropInterfaceDown:vector(packetBytes) ETV
attr interpolationmode none
attr recordingmode vector(packetBytes)
attr source packetDropReasonIsInterfaceDown(packetDropped)
attr title "packet drops: interface down, packetBytes"
vector 60 WiredAndWirelessHostsWithAP.mobileServer1.wlan[0] packetDropNoCarrier:vector(packetBytes) ETV
attr interpolationmode none
attr recordingmode vector(packetBytes)
attr source packetDropReasonIsNoCarrier(packetDropped)
attr title "packet drops: no carrier, packetBytes"
vector 61 WiredAndWirelessHostsWithAP.mobileServer1.ipv4.ip packetDropAddressResolutionFailed:vector(packetBytes) ETV
attr interpolationmode none
attr recordingmode vector(packetBytes)
attr source packetDropReasonIsAddressResolutionFailed(packetDropped)
attr title "packet drop: address resolution failed, packetBytes"
vector 62 WiredAndWirelessHostsWithAP.mobileServer1.ipv4.ip packetDropHopLimitReached:vector(packetBytes) ETV
attr interpolationmode none
attr recordingmode vector(packetBytes)
attr source packetDropReasonIsHopLimitReached(packetDropped)
attr title "packet drop: hop limit reached, packetBytes"
vector 63 WiredAndWirelessHostsWithAP.mobileServer1.ipv4.ip packetDropForwardingDisabled:vector(packetBytes) ETV
attr interpolationmode none
attr recordingmode vector(packetBytes)
attr source packetDropReasonIsForwardingDisabled(packetDropped)
attr title "packet drop: forwarding disabled, packetBytes"
vector 64 WiredAndWirelessHostsWithAP.mobileServer1.ipv4.ip packetDropNoInterfaceFound:vector(packetBytes) ETV
attr interpolationmode none
attr recordingmode vector(packetBytes)
attr source packetDropReasonIsNoInterfaceFound(packetDropped)
attr title "packet drop: no interface found, packetBytes"
vector 65 WiredAndWirelessHostsWithAP.mobileServer1.ipv4.ip packetDropNoRouteFound:vector(packetBytes) ETV
attr interpolationmode none
attr recordingmode vector(packetBytes)
attr source packetDropReasonIsNoRouteFound(packetDropped)
attr title "packet drop: no route found, packetBytes"
vector 66 WiredAndWirelessHostsWithAP.mobileServer1.ipv4.ip packetDropUndefined:vector(packetBytes) ETV
attr interpolationmode none
attr recordingmode vector(packetBytes)
attr source packetDropReasonIsUndefined(packetDropped)
attr title "packet drop: undefined, packetBytes"
vector 67 WiredAndWirelessHostsWithAP.mobileServer1.ipv4.arp arpRequestSent:vector(packetBytes) ETV
attr recordingmode vector(packetBytes)
attr source arpRequestSent
attr title "ARP request sent, packetBytes"
vector 68 WiredAndWirelessHostsWithAP.mobileServer1.ipv4.arp arpReplySent:vector(packetBytes) ETV
attr recordingmode vector(packetBytes)
attr source arpReplySent
attr title "ARP replies sent, packetBytes"
vector 69 WiredAndWirelessHostsWithAP.mobileServer1.udp packetSent:vector(packetBytes) ETV
attr interpolationmode none
attr recordingmode vector(packetBytes)
attr source packetSent
attr title "packets sent, packetBytes"
vector 70 WiredAndWirelessHostsWithAP.mobileServer1.udp packetReceived:vector(packetBytes) ETV
attr interpolationmode none
attr recordingmode vector(packetBytes)
attr source packetReceived
attr title "packets received, packetBytes"
vector 71 WiredAndWirelessHostsWithAP.mobileServer1.udp passedUpPk:vector(count) ETV
attr interpolationmode none
attr recordingmode vector(count)
attr source packetSentToUpper
attr title "packets passed up, count"
vector 72 WiredAndWirelessHostsWithAP.mobileServer1.udp droppedPkWrongPort:vector(count) ETV
attr interpolationmode none
attr recordingmode vector(count)
attr source packetDropReasonIsNoPortFound(packetDropped)
attr title "packets dropped (wrong port), count"
vector 73 WiredAndWirelessHostsWithAP.mobileServer1.udp droppedPkBadChecksum:vector(count) ETV
attr interpolationmode none
attr recordingmode vector(count)
attr source packetDropReasonIsIncorrectlyReceived(packetDropped)
attr title "packets dropped (checksum error), count"
vector 74 WiredAndWirelessHostsWithAP.mobileServer1.app[0] echoedPk:vector(packetBytes) ETV
attr interpolationmode none
attr recordingmode vector(packetBytes)
attr source packetSent
attr title "packets echoed, packetBytes"
vector 75 WiredAndWirelessHostsWithAP.mobileServer1.app[1] packetReceived:vector(packetBytes) ETV
attr interpolationmode none
attr recordingmode vector(packetBytes)
attr source packetReceived
attr title "packets received, packetBytes"
vector 76 WiredAndWirelessHostsWithAP.mobileServer1.app[1] throughput:vector ETV
attr recordingmode vector
attr source throughput(packetReceived)
attr title throughput
attr unit bps
vector 77 WiredAndWirelessHostsWithAP.mobileServer1.app[1] packetSent:vector(packetBytes) ETV
attr interpolationmode none
attr recordingmode vector(packetBytes)
attr source packetSent
attr title "packets sent, packetBytes"
vector 78 WiredAndWirelessHostsWithAP.mobileServer1.app[1] rcvdPkLifetime:vector ETV
attr interpolationmode none
attr recordingmode vector
attr source dataAge(packetReceived)
attr title "received packet lifetime"
attr unit s
vector 79 WiredAndWirelessHostsWithAP.mobileServer1.app[1] rcvdPkSeqNo:vector ETV
attr interpolationmode none
attr recordingmode vector
attr source appPkSeqNo(packetReceived)
attr title "received packet sequence number"
vector 80 WiredAndWirelessHostsWithAP.mobileServer1.app[2] packetReceived:vector(packetBytes) ETV
attr interpolationmode none
attr recordingmode vector(packetBytes)
attr source packetReceived
attr title "packets received, packetBytes"
vector 81 WiredAndWirelessHostsWithAP.mobileServer1.app[2] throughput:vector ETV
attr recordingmode vector
attr source throughput(packetReceived)
attr title throughput
attr unit bps
vector 82 WiredAndWirelessHostsWithAP.mobileServer1.app[2] packetSent:vector(packetBytes) ETV
attr interpolationmode none
attr recordingmode vector(packetBytes)
attr source packetSent
attr title "packets sent, packetBytes"
vector 83 WiredAndWirelessHostsWithAP.mobileServer1.app[2] rcvdPkLifetime:vector ETV
attr interpolationmode none
attr recordingmode vector
attr source dataAge(packetReceived)
attr title "received packet lifetime"
attr unit s
vector 84 WiredAndWirelessHostsWithAP.mobileServer1.app[2] rcvdPkSeqNo:vector ETV
attr interpolationmode none
attr recordingmode vector
attr source appPkSeqNo(packetReceived)
attr title "received packet sequence number"
vector 85 WiredAndWirelessHostsWithAP.mobileServer2.lo[0].lo rcvdPkFromHl:vector(packetBytes) ETV
attr interpolationmode none
attr recordingmode vector(packetBytes)
attr source packetReceivedFromUpper
attr title "packets received from higher layer, packetBytes"
vector 86 WiredAndWirelessHostsWithAP.mobileServer2.lo[0].lo passedUpPk:vector(packetBytes) ETV
attr interpolationmode none
attr recordingmode vector(packetBytes)
attr source packetSentToUpper
attr title "packets passed to higher layer, packetBytes"
vector 87 WiredAndWirelessHostsWithAP.mobileServer2.lo[0] packetDropInterfaceDown:vector(packetBytes) ETV
attr interpolationmode none
attr recordingmode vector(packetBytes)
attr source packetDropReasonIsInterfaceDown(packetDropped)
attr title "packet drops: interface down, packetBytes"
vector 88 WiredAndWirelessHostsWithAP.mobileServer2.lo[0] packetDropNoCarrier:vector(packetBytes) ETV
attr interpolationmode none
attr recordingmode vector(packetBytes)
attr source packetDropReasonIsNoCarrier(packetDropped)
attr title "packet drops: no carrier, packetBytes"
vector 89 WiredAndWirelessHostsWithAP.mobileServer2.wlan[0].agent sentRequest:vector ETV
attr recordingmode vector
attr title "sent requests"
vector 90 WiredAndWirelessHostsWithAP.mobileServer2.wlan[0].agent acceptConfirm:vector ETV
attr recordingmode vector
attr title "accepted confirms"
vector 91 WiredAndWirelessHostsWithAP.mobileServer2.wlan[0].agent dropConfirm:vector ETV
attr recordingmode vector
attr title "dropped confirms"
vector 92 WiredAndWirelessHostsWithAP.mobileServer2.wlan[0].mac.dcf.channelAccess.pendingQueue queueLength:vector ETV
attr autoWarmupFilter false
attr interpolationmode sample-hold
attr recordingmode vector
attr source "warmup(atomic(constant0(packetPushEnded) + count(packetPushStarted) - count(packetPulled) - count(packetRemoved) - count(packetDropped)))"
attr title "queue length"
attr unit pk
vector 93 WiredAndWirelessHostsWithAP.mobileServer2.wlan[0].mac.dcf.channelAccess.pendingQueue queueBitLength:vector ETV
attr autoWarmupFilter false
attr interpolationmode sample-hold
attr recordingmode vector
attr source "warmup(atomic(constant0(packetPushEnded) + sum(packetLength(packetPushStarted)) - sum(packetLength(packetPulled)) - sum(packetLength(packetRemoved)) - sum(packetLength(packetDropped))))"
attr title "queue bit length"
attr unit b
vector 94 WiredAndWirelessHostsWithAP.mobileServer2.wlan[0].mac.dcf.channelAccess.pendingQueue queueingTime:vector ETV
attr interpolationmode none
attr recordingmode vector
attr source queueingTime(packetPulled)
attr title "queueing times"
attr unit s
vector 95 WiredAndWirelessHostsWithAP.mobileServer2.wlan[0].mac.dcf.channelAccess.pendingQueue incomingPacketLengths:vector ETV
attr interpolationmode none
attr recordingmode vector
attr source packetLength(packetPushStarted)
attr title "incoming packet lengths"
attr unit b
vector 96 WiredAndWirelessHostsWithAP.mobileServer2.wlan[0].mac.dcf.channelAccess.pendingQueue incomingDataRate:vector ETV
attr interpolationmode linear
attr recordingmode vector
attr source throughput(packetPushStarted)
attr title "incoming datarate"
attr unit bps
vector 97 WiredAndWirelessHostsWithAP.mobileServer2.wlan[0].mac.dcf.channelAccess.pendingQueue outgoingPacketLengths:vector ETV
attr interpolationmode none
attr recordingmode vector
attr source packetLength(packetPulled)
attr title "outgoing packet lengths"
attr unit b
vector 98 WiredAndWirelessHostsWithAP.mobileServer2.wlan[0].mac.dcf.channelAccess.pendingQueue outgoingDataRate:vector ETV
attr interpolationmode linear
attr recordingmode vector
attr source throughput(packetPulled)
attr title "outgoing datarate"
attr unit bps
vector 99 WiredAndWirelessHostsWithAP.mobileServer2.wlan[0].mac.dcf.channelAccess.pendingQueue droppedPacketLengthsQueueOverflow:vector ETV
attr interpolationmode none
attr recordingmode vector
attr source packetLength(packetDropReasonIsQueueOverflow(packetDropped))
attr title "dropped packet lengths: queue overflow"
attr unit b
vector 100 WiredAndWirelessHostsWithAP.mobileServer2.wlan[0].mac.dcf.channelAccess.pendingQueue flowQueueingTime:vector ETV
attr interpolationmode none
attr recordingmode vector
attr source queueingTime(demuxFlow(packetPulled))
attr title "flow queueing times"
attr unit s
vector 101 WiredAndWirelessHostsWithAP.mobileServer2.wlan[0].mac.dcf.channelAccess.pendingQueue flowIncomingDataRate:vector ETV
attr interpolationmode linear
attr recordingmode vector
attr source throughput(flowPacketLength(demuxFlow(packetPushStarted)))
attr title "flow specific incoming data rate"
attr unit bps
vector 102 WiredAndWirelessHostsWithAP.mobileServer2.wlan[0].mac.dcf.channelAccess.pendingQueue flowOutgoingDataRate:vector ETV
attr interpolationmode linear
attr recordingmode vector
attr source throughput(flowPacketLength(demuxFlow(packetPulled)))
attr title "flow specific outgoing data rate"
attr unit bps
vector 103 WiredAndWirelessHostsWithAP.mobileServer2.wlan[0].mac.dcf.channelAccess.inProgressFrames queueingTime:vector ETV
attr interpolationmode none
attr recordingmode vector
attr source queueingTime(packetDequeued)
attr title "queueing times"
vector 104 WiredAndWirelessHostsWithAP.mobileServer2.wlan[0].mac.dcf.channelAccess.inProgressFrames queueLength:vector ETV
attr autoWarmupFilter false
attr interpolationmode sample-hold
attr recordingmode vector
attr source "warmup(count(packetEnqueued) - count(packetDequeued))"
attr title "queue length"
vector 105 WiredAndWirelessHostsWithAP.mobileServer2.wlan[0].mac.dcf.channelAccess.contention backoffPeriodGenerated:vector ETV
attr interpolationmode none
attr recordingmode vector
attr title "backoff periods"
vector 106 WiredAndWirelessHostsWithAP.mobileServer2.wlan[0].mac.dcf.channelAccess.contention backoffActive:vector ETV
attr autoWarmupFilter false
attr interpolationmode sample-hold
attr recordingmode vector
attr source warmup(count(backoffStarted)-count(backoffStopped))
attr title "backoff active"
vector 107 WiredAndWirelessHostsWithAP.mobileServer2.wlan[0].mac.dcf.channelAccess.contention stateChanged:vector ETV
attr enum IDLE,DEFER,IFS_AND_BACKOFF
attr interpolationmode none
attr recordingmode vector
attr title "contention state changed"
attr type enum
vector 108 WiredAndWirelessHostsWithAP.mobileServer2.wlan[0].mac.dcf.recipientMacDataService packetDropDuplicateDetected:vector(packetBytes) ETV
attr interpolationmode none
attr recordingmode vector(packetBytes)
attr source packetDropReasonIsDuplicateDetected(packetDropped)
attr title "packet drops: duplicate detected, packetBytes"
vector 109 WiredAndWirelessHostsWithAP.mobileServer2.wlan[0].mac.dcf.recoveryProcedure contentionWindowChanged:vector ETV
attr interpolationmode sample-hold
attr recordingmode vector
attr title "contention window"
vector 110 WiredAndWirelessHostsWithAP.mobileServer2.wlan[0].mac.dcf packetSentToPeer:vector(packetBytes) ETV
attr interpolationmode none
attr recordingmode vector(packetBytes)
attr title "packets sent, packetBytes"
vector 111 WiredAndWirelessHostsWithAP.mobileServer2.wlan[0].mac.dcf packetSentToPeerUnicast:vector(packetBytes) ETV
attr interpolationmode none
attr recordingmode vector(packetBytes)
attr source ieee80211Unicast(packetSentToPeer)
attr title "packets sent: unicast, packetBytes"
vector 112 WiredAndWirelessHostsWithAP.mobileServer2.wlan[0].mac.dcf packetSentToPeerMulticast:vector(packetBytes) ETV
attr interpolationmode none
attr recordingmode vector(packetBytes)
attr source ieee80211Multicast(packetSentToPeer)
attr title "packets sent: multicast, packetBytes"
vector 113 WiredAndWirelessHostsWithAP.mobileServer2.wlan[0].mac.dcf packetSentToPeerBroadcast:vector(packetBytes) ETV
attr interpolationmode none
attr recordingmode vector(packetBytes)
attr source ieee80211Broadcast(packetSentToPeer)
attr title "packets sent: broadcast , packetBytes"
vector 114 WiredAndWirelessHostsWithAP.mobileServer2.wlan[0].mac.dcf packetSentToPeerWithRetry:vector(packetBytes) ETV
attr interpolationmode none
attr recordingmode vector(packetBytes)
attr source ieee80211Retry(packetSentToPeer)
attr title "packets sent: with retry, packetBytes"
vector 115 WiredAndWirelessHostsWithAP.mobileServer2.wlan[0].mac.dcf packetSentToPeerWithoutRetry:vector(packetBytes) ETV
attr interpolationmode none
attr recordingmode vector(packetBytes)
attr source ieee80211NotRetry(packetSentToPeer)
attr title "packets sent: without retry, packetBytes"
vector 116 WiredAndWirelessHostsWithAP.mobileServer2.wlan[0].mac.dcf packetReceivedFromPeer:vector(packetBytes) ETV
attr interpolationmode none
attr recordingmode vector(packetBytes)
attr title "packets received, packetBytes"
vector 117 WiredAndWirelessHostsWithAP.mobileServer2.wlan[0].mac.dcf packetReceivedFromPeerUnicast:vector(packetBytes) ETV
attr interpolationmode none
attr recordingmode vector(packetBytes)
attr source ieee80211Unicast(packetReceivedFromPeer)
attr title "packets received: unicast, packetBytes"
vector 118 WiredAndWirelessHostsWithAP.mobileServer2.wlan[0].mac.dcf packetReceivedFromPeerMulticast:vector(packetBytes) ETV
attr interpolationmode none
attr recordingmode vector(packetBytes)
attr source ieee80211Multicast(packetReceivedFromPeer)
attr title "packets received: multicast, packetBytes"
vector 119 WiredAndWirelessHostsWithAP.mobileServer2.wlan[0].mac.dcf packetReceivedFromPeerBroadcast:vector(packetBytes) ETV
attr interpolationmode none
attr recordingmode vector(packetBytes)
attr source ieee80211Broadcast(packetReceivedFromPeer)
attr title "packets received: broadcast, packetBytes"
vector 120 WiredAndWirelessHostsWithAP.mobileServer2.wlan[0].mac.dcf packetReceivedFromPeerWithRetry:vector(packetBytes) ETV
attr interpolationmode none
attr recordingmode vector(packetBytes)
attr source ieee80211Retry(packetReceivedFromPeer)
attr title "packets received: with retry, packetBytes"
vector 121 WiredAndWirelessHostsWithAP.mobileServer2.wlan[0].mac.dcf packetReceivedFromPeerWithoutRetry:vector(packetBytes) ETV
attr interpolationmode none
attr recordingmode vector(packetBytes)
attr source ieee80211NotRetry(packetReceivedFromPeer)
attr title "packets received: without retry, packetBytes"
vector 122 WiredAndWirelessHostsWithAP.mobileServer2.wlan[0].mac.dcf packetDrop:vector(packetBytes) ETV
attr interpolationmode none
attr recordingmode vector(packetBytes)
attr source packetDropped
attr title "packet drops, packetBytes"
vector 123 WiredAndWirelessHostsWithAP.mobileServer2.wlan[0].mac.dcf packetDropNotAddressedToUs:vector(packetBytes) ETV
attr interpolationmode none
attr recordingmode vector(packetBytes)
attr source packetDropReasonIsNotAddressedToUs(packetDropped)
attr title "packet drops: not addressed to us, packetBytes"
vector 124 WiredAndWirelessHostsWithAP.mobileServer2.wlan[0].mac.dcf packetDropQueueOverflow:vector(packetBytes) ETV
attr interpolationmode none
attr recordingmode vector(packetBytes)
attr source packetDropReasonIsQueueOverflow(packetDropped)
attr title "packet drops: queue overflow, packetBytes"
vector 125 WiredAndWirelessHostsWithAP.mobileServer2.wlan[0].mac.dcf packetDropRetryLimitReached:vector(packetBytes) ETV
attr interpolationmode none
attr recordingmode vector(packetBytes)
attr source packetDropReasonIsRetryLimitReached(packetDropped)
attr title "packet drops: retry limit reached, packetBytes"
vector 126 WiredAndWirelessHostsWithAP.mobileServer2.wlan[0].mac.dcf frameSequenceActive:vector ETV
attr autoWarmupFilter false
attr interpolationmode sample-hold
attr recordingmode vector
attr source warmup(count(frameSequenceStarted)-count(frameSequenceFinished))
attr title "frame sequence active"
vector 127 WiredAndWirelessHostsWithAP.mobileServer2.wlan[0].mac.dcf datarateSelected:vector ETV
attr interpolationmode none
attr recordingmode vector
attr title "datarates selected"
vector 128 WiredAndWirelessHostsWithAP.mobileServer2.wlan[0].mac.rx nav:vector ETV
attr interpolationmode linear
attr recordingmode vector
attr source navChanged
attr title "network allocation vector"
vector 129 WiredAndWirelessHostsWithAP.mobileServer2.wlan[0].mac packetSentToUpper:vector(packetBytes) ETV
attr interpolationmode none
attr recordingmode vector(packetBytes)
attr title "packets sent to upper layer, packetBytes"
vector 130 WiredAndWirelessHostsWithAP.mobileServer2.wlan[0].mac packetSentToLower:vector(packetBytes) ETV
attr interpolationmode none
attr recordingmode vector(packetBytes)
attr title "packets sent to lower layer, packetBytes"
vector 131 WiredAndWirelessHostsWithAP.mobileServer2.wlan[0].mac packetReceivedFromUpper:vector(packetBytes) ETV
attr interpolationmode none
attr recordingmode vector(packetBytes)
attr title "packets received from upper layer, packetBytes"
vector 132 WiredAndWirelessHostsWithAP.mobileServer2.wlan[0].mac packetReceivedFromLower:vector(packetBytes) ETV
attr interpolationmode none
attr recordingmode vector(packetBytes)
attr title "packets received from lower layer, packetBytes"
vector 133 WiredAndWirelessHostsWithAP.mobileServer2.wlan[0].mac packetDrop:vector(packetBytes) ETV
attr interpolationmode none
attr recordingmode vector(packetBytes)
attr source packetDropped
attr title "packet drops, packetBytes"
vector 134 WiredAndWirelessHostsWithAP.mobileServer2.wlan[0].mac packetDropIncorrectlyReceived:vector(packetBytes) ETV
attr interpolationmode none
attr recordingmode vector(packetBytes)
attr source packetDropReasonIsIncorrectlyReceived(packetDropped)
attr title "packet drops: incorrectly received, packetBytes"
vector 135 WiredAndWirelessHostsWithAP.mobileServer2.wlan[0].mac packetDropNotAddressedToUs:vector(packetBytes) ETV
attr interpolationmode none
attr recordingmode vector(packetBytes)
attr source packetDropReasonIsNotAddressedToUs(packetDropped)
attr title "packet drops: not addressed to us, packetBytes"
vector 136 WiredAndWirelessHostsWithAP.mobileServer2.wlan[0].mac packetDropQueueOverflow:vector(packetBytes) ETV
attr interpolationmode none
attr recordingmode vector(packetBytes)
attr source packetDropReasonIsQueueOverflow(packetDropped)
attr title "packet drops: queue overflow, packetBytes"
vector 137 WiredAndWirelessHostsWithAP.mobileServer2.wlan[0].mac packetDropRetryLimitReached:vector(packetBytes) ETV
attr interpolationmode none
attr recordingmode vector(packetBytes)
attr source packetDropReasonIsRetryLimitReached(packetDropped)
attr title "packet drops: retry limit reached, packetBytes"
vector 138 WiredAndWirelessHostsWithAP.mobileServer2.wlan[0].mac packetDropDuplicateDetected:vector(packetBytes) ETV
attr interpolationmode none
attr recordingmode vector(packetBytes)
attr source packetDropReasonIsDuplicateDetected(packetDropped)
attr title "packet drops: duplicate detected, packetBytes"
vector 139 WiredAndWirelessHostsWithAP.mobileServer2.wlan[0].mac packetDropOther:vector(packetBytes) ETV
attr interpolationmode none
attr recordingmode vector(packetBytes)
attr source packetDropReasonIsOther(packetDropped)
attr title "packet drops: other, packetBytes"
vector 140 WiredAndWirelessHostsWithAP.mobileServer2.wlan[0].radio radioMode:vector ETV
attr interpolationmode sample-hold
attr recordingmode vector
attr source radioModeChanged
attr title "Radio mode"
vector 141 WiredAndWirelessHostsWithAP.mobileServer2.wlan[0].radio receptionState:vector ETV
attr interpolationmode sample-hold
attr recordingmode vector
attr source receptionStateChanged
attr title "Radio reception state"
vector 142 WiredAndWirelessHostsWithAP.mobileServer2.wlan[0].radio transmissionState:vector ETV
attr interpolationmode sample-hold
attr recordingmode vector
attr source transmissionStateChanged
attr title "Radio transmission state"
vector 143 WiredAndWirelessHostsWithAP.mobileServer2.wlan[0].radio radioChannel:vector ETV
attr interpolationmode sample-hold
attr recordingmode vector
attr source radioChannelChanged
attr title "Radio channel"
vector 144 WiredAndWirelessHostsWithAP.mobileServer2.wlan[0] packetDropInterfaceDown:vector(packetBytes) ETV
attr interpolationmode none
attr recordingmode vector(packetBytes)
attr source packetDropReasonIsInterfaceDown(packetDropped)
attr title "packet drops: interface down, packetBytes"
vector 145 WiredAndWirelessHostsWithAP.mobileServer2.wlan[0] packetDropNoCarrier:vector(packetBytes) ETV
attr interpolationmode none
attr recordingmode vector(packetBytes)
attr source packetDropReasonIsNoCarrier(packetDropped)
attr title "packet drops: no carrier, packetBytes"
vector 146 WiredAndWirelessHostsWithAP.mobileServer2.ipv4.ip packetDropAddressResolutionFailed:vector(packetBytes) ETV
attr interpolationmode none
attr recordingmode vector(packetBytes)
attr source packetDropReasonIsAddressResolutionFailed(packetDropped)
attr title "packet drop: address resolution failed, packetBytes"
vector 147 WiredAndWirelessHostsWithAP.mobileServer2.ipv4.ip packetDropHopLimitReached:vector(packetBytes) ETV
attr interpolationmode none
attr recordingmode vector(packetBytes)
attr source packetDropReasonIsHopLimitReached(packetDropped)
attr title "packet drop: hop limit reached, packetBytes"
vector 148 WiredAndWirelessHostsWithAP.mobileServer2.ipv4.ip packetDropForwardingDisabled:vector(packetBytes) ETV
attr interpolationmode none
attr recordingmode vector(packetBytes)
attr source packetDropReasonIsForwardingDisabled(packetDropped)
attr title "packet drop: forwarding disabled, packetBytes"
vector 149 WiredAndWirelessHostsWithAP.mobileServer2.ipv4.ip packetDropNoInterfaceFound:vector(packetBytes) ETV
attr interpolationmode none
attr recordingmode vector(packetBytes)
attr source packetDropReasonIsNoInterfaceFound(packetDropped)
attr title "packet drop: no interface found, packetBytes"
vector 150 WiredAndWirelessHostsWithAP.mobileServer2.ipv4.ip packetDropNoRouteFound:vector(packetBytes) ETV
attr interpolationmode none
attr recordingmode vector(packetBytes)
attr source packetDropReasonIsNoRouteFound(packetDropped)
attr title "packet drop: no route found, packetBytes"
vector 151 WiredAndWirelessHostsWithAP.mobileServer2.ipv4.ip packetDropUndefined:vector(packetBytes) ETV
attr interpolationmode none
attr recordingmode vector(packetBytes)
attr source packetDropReasonIsUndefined(packetDropped)
attr title "packet drop: undefined, packetBytes"
vector 152 WiredAndWirelessHostsWithAP.mobileServer2.ipv4.arp arpRequestSent:vector(packetBytes) ETV
attr recordingmode vector(packetBytes)
attr source arpRequestSent
attr title "ARP request sent, packetBytes"
vector 153 WiredAndWirelessHostsWithAP.mobileServer2.ipv4.arp arpReplySent:vector(packetBytes) ETV
attr recordingmode vector(packetBytes)
attr source arpReplySent
attr title "ARP replies sent, packetBytes"
vector 154 WiredAndWirelessHostsWithAP.mobileServer2.udp packetSent:vector(packetBytes) ETV
attr interpolationmode none
attr recordingmode vector(packetBytes)
attr source packetSent
attr title "packets sent, packetBytes"
vector 155 WiredAndWirelessHostsWithAP.mobileServer2.udp packetReceived:vector(packetBytes) ETV
attr interpolationmode none
attr recordingmode vector(packetBytes)
attr source packetReceived
attr title "packets received, packetBytes"
vector 156 WiredAndWirelessHostsWithAP.mobileServer2.udp passedUpPk:vector(count) ETV
attr interpolationmode none
attr recordingmode vector(count)
attr source packetSentToUpper
attr title "packets passed up, count"
vector 157 WiredAndWirelessHostsWithAP.mobileServer2.udp droppedPkWrongPort:vector(count) ETV
attr interpolationmode none
attr recordingmode vector(count)
attr source packetDropReasonIsNoPortFound(packetDropped)
attr title "packets dropped (wrong port), count"
vector 158 WiredAndWirelessHostsWithAP.mobileServer2.udp droppedPkBadChecksum:vector(count) ETV
attr interpolationmode none
attr recordingmode vector(count)
attr source packetDropReasonIsIncorrectlyReceived(packetDropped)
attr title "packets dropped (checksum error), count"
vector 159 WiredAndWirelessHostsWithAP.mobileServer2.app[0] echoedPk:vector(packetBytes) ETV
attr interpolationmode none
attr recordingmode vector(packetBytes)
attr source packetSent
attr title "packets echoed, packetBytes"
vector 160 WiredAndWirelessHostsWithAP.mobileServer2.app[1] packetReceived:vector(packetBytes) ETV
attr interpolationmode none
attr recordingmode vector(packetBytes)
attr source packetReceived
attr title "packets received, packetBytes"
vector 161 WiredAndWirelessHostsWithAP.mobileServer2.app[1] throughput:vector ETV
attr recordingmode vector
attr source throughput(packetReceived)
attr title throughput
attr unit bps
vector 162 WiredAndWirelessHostsWithAP.mobileServer2.app[1] packetSent:vector(packetBytes) ETV
attr interpolationmode none
attr recordingmode vector(packetBytes)
attr source packetSent
attr title "packets sent, packetBytes"
vector 163 WiredAndWirelessHostsWithAP.mobileServer2.app[1] rcvdPkLifetime:vector ETV
attr interpolationmode none
attr recordingmode vector
attr source dataAge(packetReceived)
attr title "received packet lifetime"
attr unit s
vector 164 WiredAndWirelessHostsWithAP.mobileServer2.app[1] rcvdPkSeqNo:vector ETV
attr interpolationmode none
attr recordingmode vector
attr source appPkSeqNo(packetReceived)
attr title "received packet sequence number"
vector 165 WiredAndWirelessHostsWithAP.mobileServer2.app[2] packetReceived:vector(packetBytes) ETV
attr interpolationmode none
attr recordingmode vector(packetBytes)
attr source packetReceived
attr title "packets received, packetBytes"
vector 166 WiredAndWirelessHostsWithAP.mobileServer2.app[2] throughput:vector ETV
attr recordingmode vector
attr source throughput(packetReceived)
attr title throughput
attr unit bps
vector 167 WiredAndWirelessHostsWithAP.mobileServer2.app[2] packetSent:vector(packetBytes) ETV
attr interpolationmode none
attr recordingmode vector(packetBytes)
attr source packetSent
attr title "packets sent, packetBytes"
vector 168 WiredAndWirelessHostsWithAP.mobileServer2.app[2] rcvdPkLifetime:vector ETV
attr interpolationmode none
attr recordingmode vector
attr source dataAge(packetReceived)
attr title "received packet lifetime"
attr unit s
vector 169 WiredAndWirelessHostsWithAP.mobileServer2.app[2] rcvdPkSeqNo:vector ETV
attr interpolationmode none
attr recordingmode vector
attr source appPkSeqNo(packetReceived)
attr title "received packet sequence number"
vector 170 WiredAndWirelessHostsWithAP.mobileServer3.lo[0].lo rcvdPkFromHl:vector(packetBytes) ETV
attr interpolationmode none
attr recordingmode vector(packetBytes)
attr source packetReceivedFromUpper
attr title "packets received from higher layer, packetBytes"
vector 171 WiredAndWirelessHostsWithAP.mobileServer3.lo[0].lo passedUpPk:vector(packetBytes) ETV
attr interpolationmode none
attr recordingmode vector(packetBytes)
attr source packetSentToUpper
attr title "packets passed to higher layer, packetBytes"
vector 172 WiredAndWirelessHostsWithAP.mobileServer3.lo[0] packetDropInterfaceDown:vector(packetBytes) ETV
attr interpolationmode none
attr recordingmode vector(packetBytes)
attr source packetDropReasonIsInterfaceDown(packetDropped)
attr title "packet drops: interface down, packetBytes"
vector 173 WiredAndWirelessHostsWithAP.mobileServer3.lo[0] packetDropNoCarrier:vector(packetBytes) ETV
attr interpolationmode none
attr recordingmode vector(packetBytes)
attr source packetDropReasonIsNoCarrier(packetDropped)
attr title "packet drops: no carrier, packetBytes"
vector 174 WiredAndWirelessHostsWithAP.mobileServer3.wlan[0].agent sentRequest:vector ETV
attr recordingmode vector
attr title "sent requests"
vector 175 WiredAndWirelessHostsWithAP.mobileServer3.wlan[0].agent acceptConfirm:vector ETV
attr recordingmode vector
attr title "accepted confirms"
vector 176 WiredAndWirelessHostsWithAP.mobileServer3.wlan[0].agent dropConfirm:vector ETV
attr recordingmode vector
attr title "dropped confirms"
vector 177 WiredAndWirelessHostsWithAP.mobileServer3.wlan[0].mac.dcf.channelAccess.pendingQueue queueLength:vector ETV
attr autoWarmupFilter false
attr interpolationmode sample-hold
attr recordingmode vector
attr source "warmup(atomic(constant0(packetPushEnded) + count(packetPushStarted) - count(packetPulled) - count(packetRemoved) - count(packetDropped)))"
attr title "queue length"
attr unit pk
vector 178 WiredAndWirelessHostsWithAP.mobileServer3.wlan[0].mac.dcf.channelAccess.pendingQueue queueBitLength:vector ETV
attr autoWarmupFilter false
attr interpolationmode sample-hold
attr recordingmode vector
attr source "warmup(atomic(constant0(packetPushEnded) + sum(packetLength(packetPushStarted)) - sum(packetLength(packetPulled)) - sum(packetLength(packetRemoved)) - sum(packetLength(packetDropped))))"
attr title "queue bit length"
attr unit b
vector 179 WiredAndWirelessHostsWithAP.mobileServer3.wlan[0].mac.dcf.channelAccess.pendingQueue queueingTime:vector ETV
attr interpolationmode none
attr recordingmode vector
attr source queueingTime(packetPulled)
attr title "queueing times"
attr unit s
vector 180 WiredAndWirelessHostsWithAP.mobileServer3.wlan[0].mac.dcf.channelAccess.pendingQueue incomingPacketLengths:vector ETV
attr interpolationmode none
attr recordingmode vector
attr source packetLength(packetPushStarted)
attr title "incoming packet lengths"
attr unit b
vector 181 WiredAndWirelessHostsWithAP.mobileServer3.wlan[0].mac.dcf.channelAccess.pendingQueue incomingDataRate:vector ETV
attr interpolationmode linear
attr recordingmode vector
attr source throughput(packetPushStarted)
attr title "incoming datarate"
attr unit bps
vector 182 WiredAndWirelessHostsWithAP.mobileServer3.wlan[0].mac.dcf.channelAccess.pendingQueue outgoingPacketLengths:vector ETV
attr interpolationmode none
attr recordingmode vector
attr source packetLength(packetPulled)
attr title "outgoing packet lengths"
attr unit b
vector 183 WiredAndWirelessHostsWithAP.mobileServer3.wlan[0].mac.dcf.channelAccess.pendingQueue outgoingDataRate:vector ETV
attr interpolationmode linear
attr recordingmode vector
attr source throughput(packetPulled)
attr title "outgoing datarate"
attr unit bps
vector 184 WiredAndWirelessHostsWithAP.mobileServer3.wlan[0].mac.dcf.channelAccess.pendingQueue droppedPacketLengthsQueueOverflow:vector ETV
attr interpolationmode none
attr recordingmode vector
attr source packetLength(packetDropReasonIsQueueOverflow(packetDropped))
attr title "dropped packet lengths: queue overflow"
attr unit b
vector 185 WiredAndWirelessHostsWithAP.mobileServer3.wlan[0].mac.dcf.channelAccess.pendingQueue flowQueueingTime:vector ETV
attr interpolationmode none
attr recordingmode vector
attr source queueingTime(demuxFlow(packetPulled))
attr title "flow queueing times"
attr unit s
vector 186 WiredAndWirelessHostsWithAP.mobileServer3.wlan[0].mac.dcf.channelAccess.pendingQueue flowIncomingDataRate:vector ETV
attr interpolationmode linear
attr recordingmode vector
attr source throughput(flowPacketLength(demuxFlow(packetPushStarted)))
attr title "flow specific incoming data rate"
attr unit bps
vector 187 WiredAndWirelessHostsWithAP.mobileServer3.wlan[0].mac.dcf.channelAccess.pendingQueue flowOutgoingDataRate:vector ETV
attr interpolationmode linear
attr recordingmode vector
attr source throughput(flowPacketLength(demuxFlow(packetPulled)))
attr title "flow specific outgoing data rate"
attr unit bps
vector 188 WiredAndWirelessHostsWithAP.mobileServer3.wlan[0].mac.dcf.channelAccess.inProgressFrames queueingTime:vector ETV
attr interpolationmode none
attr recordingmode vector
attr source queueingTime(packetDequeued)
attr title "queueing times"
vector 189 WiredAndWirelessHostsWithAP.mobileServer3.wlan[0].mac.dcf.channelAccess.inProgressFrames queueLength:vector ETV
attr autoWarmupFilter false
attr interpolationmode sample-hold
attr recordingmode vector
attr source "warmup(count(packetEnqueued) - count(packetDequeued))"
attr title "queue length"
vector 190 WiredAndWirelessHostsWithAP.mobileServer3.wlan[0].mac.dcf.channelAccess.contention backoffPeriodGenerated:vector ETV
attr interpolationmode none
attr recordingmode vector
attr title "backoff periods"
vector 191 WiredAndWirelessHostsWithAP.mobileServer3.wlan[0].mac.dcf.channelAccess.contention backoffActive:vector ETV
attr autoWarmupFilter false
attr interpolationmode sample-hold
attr recordingmode vector
attr source warmup(count(backoffStarted)-count(backoffStopped))
attr title "backoff active"
vector 192 WiredAndWirelessHostsWithAP.mobileServer3.wlan[0].mac.dcf.channelAccess.contention stateChanged:vector ETV
attr enum IDLE,DEFER,IFS_AND_BACKOFF
attr interpolationmode none
attr recordingmode vector
attr title "contention state changed"
attr type enum
vector 193 WiredAndWirelessHostsWithAP.mobileServer3.wlan[0].mac.dcf.recipientMacDataService packetDropDuplicateDetected:vector(packetBytes) ETV
attr interpolationmode none
attr recordingmode vector(packetBytes)
attr source packetDropReasonIsDuplicateDetected(packetDropped)
attr title "packet drops: duplicate detected, packetBytes"
vector 194 WiredAndWirelessHostsWithAP.mobileServer3.wlan[0].mac.dcf.recoveryProcedure contentionWindowChanged:vector ETV
attr interpolationmode sample-hold
attr recordingmode vector
attr title "contention window"
vector 195 WiredAndWirelessHostsWithAP.mobileServer3.wlan[0].mac.dcf packetSentToPeer:vector(packetBytes) ETV
attr interpolationmode none
attr recordingmode vector(packetBytes)
attr title "packets sent, packetBytes"
vector 196 WiredAndWirelessHostsWithAP.mobileServer3.wlan[0].mac.dcf packetSentToPeerUnicast:vector(packetBytes) ETV
attr interpolationmode none
attr recordingmode vector(packetBytes)
attr source ieee80211Unicast(packetSentToPeer)
attr title "packets sent: unicast, packetBytes"
vector 197 WiredAndWirelessHostsWithAP.mobileServer3.wlan[0].mac.dcf packetSentToPeerMulticast:vector(packetBytes) ETV
attr interpolationmode none
attr recordingmode vector(packetBytes)
attr source ieee80211Multicast(packetSentToPeer)
attr title "packets sent: multicast, packetBytes"
vector 198 WiredAndWirelessHostsWithAP.mobileServer3.wlan[0].mac.dcf packetSentToPeerBroadcast:vector(packetBytes) ETV
attr interpolationmode none
attr recordingmode vector(packetBytes)
attr source ieee80211Broadcast(packetSentToPeer)
attr title "packets sent: broadcast , packetBytes"
vector 199 WiredAndWirelessHostsWithAP.mobileServer3.wlan[0].mac.dcf packetSentToPeerWithRetry:vector(packetBytes) ETV
attr interpolationmode none
attr recordingmode vector(packetBytes)
attr source ieee80211Retry(packetSentToPeer)
attr title "packets sent: with retry, packetBytes"
vector 200 WiredAndWirelessHostsWithAP.mobileServer3.wlan[0].mac.dcf packetSentToPeerWithoutRetry:vector(packetBytes) ETV
attr interpolationmode none
attr recordingmode vector(packetBytes)
attr source ieee80211NotRetry(packetSentToPeer)
attr title "packets sent: without retry, packetBytes"
vector 201 WiredAndWirelessHostsWithAP.mobileServer3.wlan[0].mac.dcf packetReceivedFromPeer:vector(packetBytes) ETV
attr interpolationmode none
attr recordingmode vector(packetBytes)
attr title "packets received, packetBytes"
vector 202 WiredAndWirelessHostsWithAP.mobileServer3.wlan[0].mac.dcf packetReceivedFromPeerUnicast:vector(packetBytes) ETV
attr interpolationmode none
attr recordingmode vector(packetBytes)
attr source ieee80211Unicast(packetReceivedFromPeer)
attr title "packets received: unicast, packetBytes"
vector 203 WiredAndWirelessHostsWithAP.mobileServer3.wlan[0].mac.dcf packetReceivedFromPeerMulticast:vector(packetBytes) ETV
attr interpolationmode none
attr recordingmode vector(packetBytes)
attr source ieee80211Multicast(packetReceivedFromPeer)
attr title "packets received: multicast, packetBytes"
vector 204 WiredAndWirelessHostsWithAP.mobileServer3.wlan[0].mac.dcf packetReceivedFromPeerBroadcast:vector(packetBytes) ETV
attr interpolationmode none
attr recordingmode vector(packetBytes)
attr source ieee80211Broadcast(packetReceivedFromPeer)
attr title "packets received: broadcast, packetBytes"
vector 205 WiredAndWirelessHostsWithAP.mobileServer3.wlan[0].mac.dcf packetReceivedFromPeerWithRetry:vector(packetBytes) ETV
attr interpolationmode none
attr recordingmode vector(packetBytes)
attr source ieee80211Retry(packetReceivedFromPeer)
attr title "packets received: with retry, packetBytes"
vector 206 WiredAndWirelessHostsWithAP.mobileServer3.wlan[0].mac.dcf packetReceivedFromPeerWithoutRetry:vector(packetBytes) ETV
attr interpolationmode none
attr recordingmode vector(packetBytes)
attr source ieee80211NotRetry(packetReceivedFromPeer)
attr title "packets received: without retry, packetBytes"
vector 207 WiredAndWirelessHostsWithAP.mobileServer3.wlan[0].mac.dcf packetDrop:vector(packetBytes) ETV
attr interpolationmode none
attr recordingmode vector(packetBytes)
attr source packetDropped
attr title "packet drops, packetBytes"
vector 208 WiredAndWirelessHostsWithAP.mobileServer3.wlan[0].mac.dcf packetDropNotAddressedToUs:vector(packetBytes) ETV
attr interpolationmode none
attr recordingmode vector(packetBytes)
attr source packetDropReasonIsNotAddressedToUs(packetDropped)
attr title "packet drops: not addressed to us, packetBytes"
vector 209 WiredAndWirelessHostsWithAP.mobileServer3.wlan[0].mac.dcf packetDropQueueOverflow:vector(packetBytes) ETV
attr interpolationmode none
attr recordingmode vector(packetBytes)
attr source packetDropReasonIsQueueOverflow(packetDropped)
attr title "packet drops: queue overflow, packetBytes"
vector 210 WiredAndWirelessHostsWithAP.mobileServer3.wlan[0].mac.dcf packetDropRetryLimitReached:vector(packetBytes) ETV
attr interpolationmode none
attr recordingmode vector(packetBytes)
attr source packetDropReasonIsRetryLimitReached(packetDropped)
attr title "packet drops: retry limit reached, packetBytes"
vector 211 WiredAndWirelessHostsWithAP.mobileServer3.wlan[0].mac.dcf frameSequenceActive:vector ETV
attr autoWarmupFilter false
attr interpolationmode sample-hold
attr recordingmode vector
attr source warmup(count(frameSequenceStarted)-count(frameSequenceFinished))
attr title "frame sequence active"
vector 212 WiredAndWirelessHostsWithAP.mobileServer3.wlan[0].mac.dcf datarateSelected:vector ETV
attr interpolationmode none
attr recordingmode vector
attr title "datarates selected"
vector 213 WiredAndWirelessHostsWithAP.mobileServer3.wlan[0].mac.rx nav:vector ETV
attr interpolationmode linear
attr recordingmode vector
attr source navChanged
attr title "network allocation vector"
vector 214 WiredAndWirelessHostsWithAP.mobileServer3.wlan[0].mac packetSentToUpper:vector(packetBytes) ETV
attr interpolationmode none
attr recordingmode vector(packetBytes)
attr title "packets sent to upper layer, packetBytes"
vector 215 WiredAndWirelessHostsWithAP.mobileServer3.wlan[0].mac packetSentToLower:vector(packetBytes) ETV
attr interpolationmode none
attr recordingmode vector(packetBytes)
attr title "packets sent to lower layer, packetBytes"
vector 216 WiredAndWirelessHostsWithAP.mobileServer3.wlan[0].mac packetReceivedFromUpper:vector(packetBytes) ETV
attr interpolationmode none
attr recordingmode vector(packetBytes)
attr title "packets received from upper layer, packetBytes"
vector 217 WiredAndWirelessHostsWithAP.mobileServer3.wlan[0].mac packetReceivedFromLower:vector(packetBytes) ETV
attr interpolationmode none
attr recordingmode vector(packetBytes)
attr title "packets received from lower layer, packetBytes"
vector 218 WiredAndWirelessHostsWithAP.mobileServer3.wlan[0].mac packetDrop:vector(packetBytes) ETV
attr interpolationmode none
attr recordingmode vector(packetBytes)
attr source packetDropped
attr title "packet drops, packetBytes"
vector 219 WiredAndWirelessHostsWithAP.mobileServer3.wlan[0].mac packetDropIncorrectlyReceived:vector(packetBytes) ETV
attr interpolationmode none
attr recordingmode vector(packetBytes)
attr source packetDropReasonIsIncorrectlyReceived(packetDropped)
attr title "packet drops: incorrectly received, packetBytes"
vector 220 WiredAndWirelessHostsWithAP.mobileServer3.wlan[0].mac packetDropNotAddressedToUs:vector(packetBytes) ETV
attr interpolationmode none
attr recordingmode vector(packetBytes)
attr source packetDropReasonIsNotAddressedToUs(packetDropped)
attr title "packet drops: not addressed to us, packetBytes"
vector 221 WiredAndWirelessHostsWithAP.mobileServer3.wlan[0].mac packetDropQueueOverflow:vector(packetBytes) ETV
attr interpolationmode none
attr recordingmode vector(packetBytes)
attr source packetDropReasonIsQueueOverflow(packetDropped)
attr title "packet drops: queue overflow, packetBytes"
vector 222 WiredAndWirelessHostsWithAP.mobileServer3.wlan[0].mac packetDropRetryLimitReached:vector(packetBytes) ETV
attr interpolationmode none
attr recordingmode vector(packetBytes)
attr source packetDropReasonIsRetryLimitReached(packetDropped)
attr title "packet drops: retry limit reached, packetBytes"
vector 223 WiredAndWirelessHostsWithAP.mobileServer3.wlan[0].mac packetDropDuplicateDetected:vector(packetBytes) ETV
attr interpolationmode none
attr recordingmode vector(packetBytes)
attr source packetDropReasonIsDuplicateDetected(packetDropped)
attr title "packet drops: duplicate detected, packetBytes"
vector 224 WiredAndWirelessHostsWithAP.mobileServer3.wlan[0].mac packetDropOther:vector(packetBytes) ETV
attr interpolationmode none
attr recordingmode vector(packetBytes)
attr source packetDropReasonIsOther(packetDropped)
attr title "packet drops: other, packetBytes"
vector 225 WiredAndWirelessHostsWithAP.mobileServer3.wlan[0].radio radioMode:vector ETV
attr interpolationmode sample-hold
attr recordingmode vector
attr source radioModeChanged
attr title "Radio mode"
vector 226 WiredAndWirelessHostsWithAP.mobileServer3.wlan[0].radio receptionState:vector ETV
attr interpolationmode sample-hold
attr recordingmode vector
attr source receptionStateChanged
attr title "Radio reception state"
vector 227 WiredAndWirelessHostsWithAP.mobileServer3.wlan[0].radio transmissionState:vector ETV
attr interpolationmode sample-hold
attr recordingmode vector
attr source transmissionStateChanged
attr title "Radio transmission state"
vector 228 WiredAndWirelessHostsWithAP.mobileServer3.wlan[0].radio radioChannel:vector ETV
attr interpolationmode sample-hold
attr recordingmode vector
attr source radioChannelChanged
attr title "Radio channel"
vector 229 WiredAndWirelessHostsWithAP.mobileServer3.wlan[0] packetDropInterfaceDown:vector(packetBytes) ETV
attr interpolationmode none
attr recordingmode vector(packetBytes)
attr source packetDropReasonIsInterfaceDown(packetDropped)
attr title "packet drops: interface down, packetBytes"
vector 230 WiredAndWirelessHostsWithAP.mobileServer3.wlan[0] packetDropNoCarrier:vector(packetBytes) ETV
attr interpolationmode none
attr recordingmode vector(packetBytes)
attr source packetDropReasonIsNoCarrier(packetDropped)
attr title "packet drops: no carrier, packetBytes"
vector 231 WiredAndWirelessHostsWithAP.mobileServer3.ipv4.ip packetDropAddressResolutionFailed:vector(packetBytes) ETV
attr interpolationmode none
attr recordingmode vector(packetBytes)
attr source packetDropReasonIsAddressResolutionFailed(packetDropped)
attr title "packet drop: address resolution failed, packetBytes"
vector 232 WiredAndWirelessHostsWithAP.mobileServer3.ipv4.ip packetDropHopLimitReached:vector(packetBytes) ETV
attr interpolationmode none
attr recordingmode vector(packetBytes)
attr source packetDropReasonIsHopLimitReached(packetDropped)
attr title "packet drop: hop limit reached, packetBytes"
vector 233 WiredAndWirelessHostsWithAP.mobileServer3.ipv4.ip packetDropForwardingDisabled:vector(packetBytes) ETV
attr interpolationmode none
attr recordingmode vector(packetBytes)
attr source packetDropReasonIsForwardingDisabled(packetDropped)
attr title "packet drop: forwarding disabled, packetBytes"
vector 234 WiredAndWirelessHostsWithAP.mobileServer3.ipv4.ip packetDropNoInterfaceFound:vector(packetBytes) ETV
attr interpolationmode none
attr recordingmode vector(packetBytes)
attr source packetDropReasonIsNoInterfaceFound(packetDropped)
attr title "packet drop: no interface found, packetBytes"
vector 235 WiredAndWirelessHostsWithAP.mobileServer3.ipv4.ip packetDropNoRouteFound:vector(packetBytes) ETV
attr interpolationmode none
attr recordingmode vector(packetBytes)
attr source packetDropReasonIsNoRouteFound(packetDropped)
attr title "packet drop: no route found, packetBytes"
vector 236 WiredAndWirelessHostsWithAP.mobileServer3.ipv4.ip packetDropUndefined:vector(packetBytes) ETV
attr interpolationmode none
attr recordingmode vector(packetBytes)
attr source packetDropReasonIsUndefined(packetDropped)
attr title "packet drop: undefined, packetBytes"
vector 237 WiredAndWirelessHostsWithAP.mobileServer3.ipv4.arp arpRequestSent:vector(packetBytes) ETV
attr recordingmode vector(packetBytes)
attr source arpRequestSent
attr title "ARP request sent, packetBytes"
vector 238 WiredAndWirelessHostsWithAP.mobileServer3.ipv4.arp arpReplySent:vector(packetBytes) ETV
attr recordingmode vector(packetBytes)
attr source arpReplySent
attr title "ARP replies sent, packetBytes"
vector 239 WiredAndWirelessHostsWithAP.mobileServer3.udp packetSent:vector(packetBytes) ETV
attr interpolationmode none
attr recordingmode vector(packetBytes)
attr source packetSent
attr title "packets sent, packetBytes"
vector 240 WiredAndWirelessHostsWithAP.mobileServer3.udp packetReceived:vector(packetBytes) ETV
attr interpolationmode none
attr recordingmode vector(packetBytes)
attr source packetReceived
attr title "packets received, packetBytes"
vector 241 WiredAndWirelessHostsWithAP.mobileServer3.udp passedUpPk:vector(count) ETV
attr interpolationmode none
attr recordingmode vector(count)
attr source packetSentToUpper
attr title "packets passed up, count"
vector 242 WiredAndWirelessHostsWithAP.mobileServer3.udp droppedPkWrongPort:vector(count) ETV
attr interpolationmode none
attr recordingmode vector(count)
attr source packetDropReasonIsNoPortFound(packetDropped)
attr title "packets dropped (wrong port), count"
vector 243 WiredAndWirelessHostsWithAP.mobileServer3.udp droppedPkBadChecksum:vector(count) ETV
attr interpolationmode none
attr recordingmode vector(count)
attr source packetDropReasonIsIncorrectlyReceived(packetDropped)
attr title "packets dropped (checksum error), count"
vector 244 WiredAndWirelessHostsWithAP.mobileServer3.app[0] echoedPk:vector(packetBytes) ETV
attr interpolationmode none
attr recordingmode vector(packetBytes)
attr source packetSent
attr title "packets echoed, packetBytes"
vector 245 WiredAndWirelessHostsWithAP.mobileServer3.app[1] packetReceived:vector(packetBytes) ETV
attr interpolationmode none
attr recordingmode vector(packetBytes)
attr source packetReceived
attr title "packets received, packetBytes"
vector 246 WiredAndWirelessHostsWithAP.mobileServer3.app[1] throughput:vector ETV
attr recordingmode vector
attr source throughput(packetReceived)
attr title throughput
attr unit bps
vector 247 WiredAndWirelessHostsWithAP.mobileServer3.app[1] packetSent:vector(packetBytes) ETV
attr interpolationmode none
attr recordingmode vector(packetBytes)
attr source packetSent
attr title "packets sent, packetBytes"
vector 248 WiredAndWirelessHostsWithAP.mobileServer3.app[1] rcvdPkLifetime:vector ETV
attr interpolationmode none
attr recordingmode vector
attr source dataAge(packetReceived)
attr title "received packet lifetime"
attr unit s
vector 249 WiredAndWirelessHostsWithAP.mobileServer3.app[1] rcvdPkSeqNo:vector ETV
attr interpolationmode none
attr recordingmode vector
attr source appPkSeqNo(packetReceived)
attr title "received packet sequence number"
vector 250 WiredAndWirelessHostsWithAP.mobileServer3.app[2] packetReceived:vector(packetBytes) ETV
attr interpolationmode none
attr recordingmode vector(packetBytes)
attr source packetReceived
attr title "packets received, packetBytes"
vector 251 WiredAndWirelessHostsWithAP.mobileServer3.app[2] throughput:vector ETV
attr recordingmode vector
attr source throughput(packetReceived)
attr title throughput
attr unit bps
vector 252 WiredAndWirelessHostsWithAP.mobileServer3.app[2] packetSent:vector(packetBytes) ETV
attr interpolationmode none
attr recordingmode vector(packetBytes)
attr source packetSent
attr title "packets sent, packetBytes"
vector 253 WiredAndWirelessHostsWithAP.mobileServer3.app[2] rcvdPkLifetime:vector ETV
attr interpolationmode none
attr recordingmode vector
attr source dataAge(packetReceived)
attr title "received packet lifetime"
attr unit s
vector 254 WiredAndWirelessHostsWithAP.mobileServer3.app[2] rcvdPkSeqNo:vector ETV
attr interpolationmode none
attr recordingmode vector
attr source appPkSeqNo(packetReceived)
attr title "received packet sequence number"
vector 255 WiredAndWirelessHostsWithAP.mobileServer4.lo[0].lo rcvdPkFromHl:vector(packetBytes) ETV
attr interpolationmode none
attr recordingmode vector(packetBytes)
attr source packetReceivedFromUpper
attr title "packets received from higher layer, packetBytes"
vector 256 WiredAndWirelessHostsWithAP.mobileServer4.lo[0].lo passedUpPk:vector(packetBytes) ETV
attr interpolationmode none
attr recordingmode vector(packetBytes)
attr source packetSentToUpper
attr title "packets passed to higher layer, packetBytes"
vector 257 WiredAndWirelessHostsWithAP.mobileServer4.lo[0] packetDropInterfaceDown:vector(packetBytes) ETV
attr interpolationmode none
attr recordingmode vector(packetBytes)
attr source packetDropReasonIsInterfaceDown(packetDropped)
attr title "packet drops: interface down, packetBytes"
vector 258 WiredAndWirelessHostsWithAP.mobileServer4.lo[0] packetDropNoCarrier:vector(packetBytes) ETV
attr interpolationmode none
attr recordingmode vector(packetBytes)
attr source packetDropReasonIsNoCarrier(packetDropped)
attr title "packet drops: no carrier, packetBytes"
vector 259 WiredAndWirelessHostsWithAP.mobileServer4.wlan[0].agent sentRequest:vector ETV
attr recordingmode vector
attr title "sent requests"
vector 260 WiredAndWirelessHostsWithAP.mobileServer4.wlan[0].agent acceptConfirm:vector ETV
attr recordingmode vector
attr title "accepted confirms"
vector 261 WiredAndWirelessHostsWithAP.mobileServer4.wlan[0].agent dropConfirm:vector ETV
attr recordingmode vector
attr title "dropped confirms"
vector 262 WiredAndWirelessHostsWithAP.mobileServer4.wlan[0].mac.dcf.channelAccess.pendingQueue queueLength:vector ETV
attr autoWarmupFilter false
attr interpolationmode sample-hold
attr recordingmode vector
attr source "warmup(atomic(constant0(packetPushEnded) + count(packetPushStarted) - count(packetPulled) - count(packetRemoved) - count(packetDropped)))"
attr title "queue length"
attr unit pk
vector 263 WiredAndWirelessHostsWithAP.mobileServer4.wlan[0].mac.dcf.channelAccess.pendingQueue queueBitLength:vector ETV
attr autoWarmupFilter false
attr interpolationmode sample-hold
attr recordingmode vector
attr source "warmup(atomic(constant0(packetPushEnded) + sum(packetLength(packetPushStarted)) - sum(packetLength(packetPulled)) - sum(packetLength(packetRemoved)) - sum(packetLength(packetDropped))))"
attr title "queue bit length"
attr unit b
vector 264 WiredAndWirelessHostsWithAP.mobileServer4.wlan[0].mac.dcf.channelAccess.pendingQueue queueingTime:vector ETV
attr interpolationmode none
attr recordingmode vector
attr source queueingTime(packetPulled)
attr title "queueing times"
attr unit s
vector 265 WiredAndWirelessHostsWithAP.mobileServer4.wlan[0].mac.dcf.channelAccess.pendingQueue incomingPacketLengths:vector ETV
attr interpolationmode none
attr recordingmode vector
attr source packetLength(packetPushStarted)
attr title "incoming packet lengths"
attr unit b
vector 266 WiredAndWirelessHostsWithAP.mobileServer4.wlan[0].mac.dcf.channelAccess.pendingQueue incomingDataRate:vector ETV
attr interpolationmode linear
attr recordingmode vector
attr source throughput(packetPushStarted)
attr title "incoming datarate"
attr unit bps
vector 267 WiredAndWirelessHostsWithAP.mobileServer4.wlan[0].mac.dcf.channelAccess.pendingQueue outgoingPacketLengths:vector ETV
attr interpolationmode none
attr recordingmode vector
attr source packetLength(packetPulled)
attr title "outgoing packet lengths"
attr unit b
vector 268 WiredAndWirelessHostsWithAP.mobileServer4.wlan[0].mac.dcf.channelAccess.pendingQueue outgoingDataRate:vector ETV
attr interpolationmode linear
attr recordingmode vector
attr source throughput(packetPulled)
attr title "outgoing datarate"
attr unit bps
vector 269 WiredAndWirelessHostsWithAP.mobileServer4.wlan[0].mac.dcf.channelAccess.pendingQueue droppedPacketLengthsQueueOverflow:vector ETV
attr interpolationmode none
attr recordingmode vector
attr source packetLength(packetDropReasonIsQueueOverflow(packetDropped))
attr title "dropped packet lengths: queue overflow"
attr unit b
vector 270 WiredAndWirelessHostsWithAP.mobileServer4.wlan[0].mac.dcf.channelAccess.pendingQueue flowQueueingTime:vector ETV
attr interpolationmode none
attr recordingmode vector
attr source queueingTime(demuxFlow(packetPulled))
attr title "flow queueing times"
attr unit s
vector 271 WiredAndWirelessHostsWithAP.mobileServer4.wlan[0].mac.dcf.channelAccess.pendingQueue flowIncomingDataRate:vector ETV
attr interpolationmode linear
attr recordingmode vector
attr source throughput(flowPacketLength(demuxFlow(packetPushStarted)))
attr title "flow specific incoming data rate"
attr unit bps
vector 272 WiredAndWirelessHostsWithAP.mobileServer4.wlan[0].mac.dcf.channelAccess.pendingQueue flowOutgoingDataRate:vector ETV
attr interpolationmode linear
attr recordingmode vector
attr source throughput(flowPacketLength(demuxFlow(packetPulled)))
attr title "flow specific outgoing data rate"
attr unit bps
vector 273 WiredAndWirelessHostsWithAP.mobileServer4.wlan[0].mac.dcf.channelAccess.inProgressFrames queueingTime:vector ETV
attr interpolationmode none
attr recordingmode vector
attr source queueingTime(packetDequeued)
attr title "queueing times"
vector 274 WiredAndWirelessHostsWithAP.mobileServer4.wlan[0].mac.dcf.channelAccess.inProgressFrames queueLength:vector ETV
attr autoWarmupFilter false
attr interpolationmode sample-hold
attr recordingmode vector
attr source "warmup(count(packetEnqueued) - count(packetDequeued))"
attr title "queue length"
vector 275 WiredAndWirelessHostsWithAP.mobileServer4.wlan[0].mac.dcf.channelAccess.contention backoffPeriodGenerated:vector ETV
attr interpolationmode none
attr recordingmode vector
attr title "backoff periods"
vector 276 WiredAndWirelessHostsWithAP.mobileServer4.wlan[0].mac.dcf.channelAccess.contention backoffActive:vector ETV
attr autoWarmupFilter false
attr interpolationmode sample-hold
attr recordingmode vector
attr source warmup(count(backoffStarted)-count(backoffStopped))
attr title "backoff active"
vector 277 WiredAndWirelessHostsWithAP.mobileServer4.wlan[0].mac.dcf.channelAccess.contention stateChanged:vector ETV
attr enum IDLE,DEFER,IFS_AND_BACKOFF
attr interpolationmode none
attr recordingmode vector
attr title "contention state changed"
attr type enum
vector 278 WiredAndWirelessHostsWithAP.mobileServer4.wlan[0].mac.dcf.recipientMacDataService packetDropDuplicateDetected:vector(packetBytes) ETV
attr interpolationmode none
attr recordingmode vector(packetBytes)
attr source packetDropReasonIsDuplicateDetected(packetDropped)
attr title "packet drops: duplicate detected, packetBytes"
vector 279 WiredAndWirelessHostsWithAP.mobileServer4.wlan[0].mac.dcf.recoveryProcedure contentionWindowChanged:vector ETV
attr interpolationmode sample-hold
attr recordingmode vector
attr title "contention window"
vector 280 WiredAndWirelessHostsWithAP.mobileServer4.wlan[0].mac.dcf packetSentToPeer:vector(packetBytes) ETV
attr interpolationmode none
attr recordingmode vector(packetBytes)
attr title "packets sent, packetBytes"
vector 281 WiredAndWirelessHostsWithAP.mobileServer4.wlan[0].mac.dcf packetSentToPeerUnicast:vector(packetBytes) ETV
attr interpolationmode none
attr recordingmode vector(packetBytes)
attr source ieee80211Unicast(packetSentToPeer)
attr title "packets sent: unicast, packetBytes"
vector 282 WiredAndWirelessHostsWithAP.mobileServer4.wlan[0].mac.dcf packetSentToPeerMulticast:vector(packetBytes) ETV
attr interpolationmode none
attr recordingmode vector(packetBytes)
attr source ieee80211Multicast(packetSentToPeer)
attr title "packets sent: multicast, packetBytes"
vector 283 WiredAndWirelessHostsWithAP.mobileServer4.wlan[0].mac.dcf packetSentToPeerBroadcast:vector(packetBytes) ETV
attr interpolationmode none
attr recordingmode vector(packetBytes)
attr source ieee80211Broadcast(packetSentToPeer)
attr title "packets sent: broadcast , packetBytes"
vector 284 WiredAndWirelessHostsWithAP.mobileServer4.wlan[0].mac.dcf packetSentToPeerWithRetry:vector(packetBytes) ETV
attr interpolationmode none
attr recordingmode vector(packetBytes)
attr source ieee80211Retry(packetSentToPeer)
attr title "packets sent: with retry, packetBytes"
vector 285 WiredAndWirelessHostsWithAP.mobileServer4.wlan[0].mac.dcf packetSentToPeerWithoutRetry:vector(packetBytes) ETV
attr interpolationmode none
attr recordingmode vector(packetBytes)
attr source ieee80211NotRetry(packetSentToPeer)
attr title "packets sent: without retry, packetBytes"
vector 286 WiredAndWirelessHostsWithAP.mobileServer4.wlan[0].mac.dcf packetReceivedFromPeer:vector(packetBytes) ETV
attr interpolationmode none
attr recordingmode vector(packetBytes)
attr title "packets received, packetBytes"
vector 287 WiredAndWirelessHostsWithAP.mobileServer4.wlan[0].mac.dcf packetReceivedFromPeerUnicast:vector(packetBytes) ETV
attr interpolationmode none
attr recordingmode vector(packetBytes)
attr source ieee80211Unicast(packetReceivedFromPeer)
[...]
936	458238 25 1466 1466 1.00005379 1.00005379 1 368 368 368 135424
937	458263 158 1466 1466 0.1 1 10 0 0 0 0
938	458421 25 1466 1466 1.00005379 1.00005379 1 368 368 368 135424
939	458446 158 1466 1466 0.1 1 10 0 0 0 0
944	458604 24 1486 1486 1.00005955 1.00005955 1 64 64 64 4096
945	458628 103 1462 1869 1.00005379 1.001445227601 4 64 146 502 68044
946	458731 103 1462 1869 1.00005379 1.001445227601 4 64 146 502 68044
949	458834 24 1466 1466 1.00005379 1.00005379 1 46 46 46 2116
961	458858 24 1532 1532 1.00007197 1.00007197 1 28 28 28 784
962	458882 24 1464 1464 1.00005379 1.00005379 1 28 28 28 784
963	458906 125 1391 1865 1.0000298 1.001432857601 5 28 128 440 50720
964	459031 125 1389 1863 1.0000298 1.001432857601 5 46 128 476 53384
970	459156 173 0 1866 0 1.001432857601 10 0 1 1 1
971	459329 176 0 1866 0 1.001432857601 10 0 1168 1168 1364224
972	459505 103 1422 1866 1.00004798 1.001432857601 4 0 1.162e-05 1.162e-05 1.350244e-10
973	459608 106 1422 1866 1.00004798 1.001432857601 4 368 1168 3872 4228096
974	459714 158 1422 1422 0.1 1 10 0 0 0 0
975	459872 106 1422 1866 1.00004798 1.001432857601 4 368 1168 3872 4228096
976	459978 158 1422 1422 0.1 1 10 0 0 0 0
981	460136 102 1461 1868 1.00005374 1.001445177601 4 64 146 502 68044
982	460238 23 1487 1487 1.0000596 1.0000596 1 64 64 64 4096
983	460261 23 1487 1487 1.0000596 1.0000596 1 64 64 64 4096
986	460284 102 1422 1866 1.00004798 1.001432857601 4 46 146 484 66064
992	460386 77 0 1392 0 1.0000298 6 0 0 0 0
993	460463 77 0 1392 0 1.0000298 6 0 0 0 0
994	460540 22 1392 1392 1.0000298 1.0000298 1 0 0 0 0
995	460562 24 1392 1392 1.0000298 1.0000298 1 368 368 368 135424
996	460586 158 1392 1392 0.1 1 10 0 0 0 0
997	460744 24 1392 1392 1.0000298 1.0000298 1 368 368 368 135424
998	460768 158 1392 1392 0.1 1 10 0 0 0 0
1003	460926 25 1394 1394 1.00003556 1.00003556 1 64 64 64 4096
1004	460951 106 1388 1862 1.0000298 1.001432857601 4 64 146 502 68044
1005	461057 106 1388 1862 1.0000298 1.001432857601 4 64 146 502 68044
1008	461163 24 1392 1392 1.0000298 1.0000298 1 46 46 46 2116
1020	461187 25 1420 1420 1.00004798 1.00004798 1 28 28 28 784
1021	461212 24 1390 1390 1.0000298 1.0000298 1 28 28 28 784
1022	461236 88 1796 1833 1.001353577601 1.001383377601 3 28 128 184 17952
1023	461324 88 1794 1831 1.001353577601 1.001383377601 3 46 128 220 20616
1029	461412 88 0 1797 0 1.001353577601 6 0 0 0 0
1030	461500 88 0 1797 0 1.001353577601 6 0 0 0 0
1031	461588 28 1797 1797 1.001353577601 1.001353577601 1 0 0 0 0
1032	461616 30 1797 1797 1.001353577601 1.001353577601 1 368 368 368 135424
1033	461646 168 1797 1797 0.1 1 10 0 0 0 0
1034	461814 30 1797 1797 1.001353577601 1.001353577601 1 368 368 368 135424
1035	461844 168 1797 1797 0.1 1 10 0 0 0 0
1040	462012 29 1808 1808 1.001359337601 1.001359337601 1 64 64 64 4096
1041	462041 59 1793 1816 1.001353577601 1.001371757601 2 64 146 210 25412
1042	462100 59 1793 1816 1.001353577601 1.001371757601 2 64 146 210 25412
1045	462159 29 1797 1797 1.001353577601 1.001353577601 1 46 46 46 2116
1051	462188 116 0 1834 0 1.001383377601 7 0 0 0 0
1052	462304 116 0 1834 0 1.001383377601 7 0 0 0 0
1053	462420 56 1820 1834 1.001371757601 1.001383377601 2 0 0 0 0
1054	462476 61 1820 1834 1.001371757601 1.001383377601 2 368 1168 1536 1499648
1055	462537 168 1820 1820 0.1 1 10 0 0 0 0
1056	462705 61 1820 1834 1.001371757601 1.001383377601 2 368 1168 1536 1499648
1057	462766 168 1820 1820 0.1 1 10 0 0 0 0
1062	462934 59 1822 1836 1.001377517601 1.001395697601 2 64 146 210 25412
1063	462993 29 1830 1830 1.001383377601 1.001383377601 1 64 64 64 4096
1064	463022 29 1830 1830 1.001383377601 1.001383377601 1 64 64 64 4096
1067	463051 59 1820 1834 1.001371757601 1.001383377601 2 46 146 192 23432
1079	463110 29 1818 1818 1.001371757601 1.001371757601 1 28 28 28 784
1080	463139 29 1795 1795 1.001353577601 1.001353577601 1 28 28 28 784
1081	463168 320 1351 1858 1.00000581 1.001420487601 12 28 128 1136 134208
1082	463488 320 1347 1856 1.00000581 1.001420487601 12 46 128 1208 139536
1088	463808 88 0 1827 0 1.001377567601 6 0 0 0 0
1089	463896 88 0 1827 0 1.001377567601 6 0 0 0 0
1090	463984 28 1827 1827 1.001377567601 1.001377567601 1 0 0 0 0
1091	464012 30 1827 1827 1.001377567601 1.001377567601 1 368 368 368 135424
1092	464042 168 1827 1827 0.1 1 10 0 0 0 0
1093	464210 30 1827 1827 1.001377567601 1.001377567601 1 368 368 368 135424
1094	464240 168 1827 1827 0.1 1 10 0 0 0 0
1099	464408 29 1829 1829 1.001383327601 1.001383327601 1 64 64 64 4096
1100	464437 59 1823 1837 1.001377567601 1.001395747601 2 64 146 210 25412
1101	464496 59 1823 1837 1.001377567601 1.001395747601 2 64 146 210 25412
1104	464555 29 1827 1827 1.001377567601 1.001377567601 1 46 46 46 2116
1110	464584 184 0 1859 0 1.001420487601 10 0 1 1 1
1111	464768 187 0 1859 0 1.001420487601 10 0 1168 1168 1364224
1112	464955 108 1384 1859 1.00002399 1.001420487601 4 0 1.328e-05 1.328e-05 1.763584e-10
1113	465063 111 1384 1859 1.00002399 1.001420487601 4 368 1168 3872 4228096
1114	465174 168 1384 1384 0.1 1 10 0 0 0 0
1115	465342 111 1384 1859 1.00002399 1.001420487601 4 368 1168 3872 4228096
1116	465453 168 1384 1384 0.1 1 10 0 0 0 0
1121	465621 107 1387 1861 1.00002975 1.001432807601 4 64 146 502 68044
1122	465728 25 1395 1395 1.00003561 1.00003561 1 64 64 64 4096
1123	465753 25 1395 1395 1.00003561 1.00003561 1 64 64 64 4096
1126	465778 107 1384 1859 1.00002399 1.001420487601 4 46 146 484 66064
1132	465885 132 0 1512 0 1.00006201 8 0 0 0 0
1133	466017 132 0 1512 0 1.00006201 8 0 0 0 0
1134	466149 72 1353 1512 1.00000581 1.00006201 3 0 0 0 0
1135	466221 80 1353 1512 1.00000581 1.00006201 3 368 1168 2704 2863872
1136	466301 168 1353 1353 0.1 1 10 0 0 0 0
1137	466469 80 1353 1512 1.00000581 1.00006201 3 368 1168 2704 2863872
1138	466549 168 1353 1353 0.1 1 10 0 0 0 0
1143	466717 77 1357 1536 1.00001157 1.00007433 3 64 146 356 46728
1144	466794 103 1345 1505 1.00000581 1.00006201 4 64 146 502 68044
1145	466897 103 1345 1505 1.00000581 1.00006201 4 64 146 502 68044
1148	467000 77 1353 1512 1.00000581 1.00006201 3 46 146 338 44748
1154	467077 60 0 0 0 0 5 0 0 0 0
1155	467137 60 0 0 0 0 5 0 0 0 0
1176	467197 60 0 0 0 0 5 0 0 0 0
1177	467257 60 0 0 0 0 5 0 0 0 0
1198	467317 60 0 0 0 0 5 0 0 0 0
1199	467377 60 0 0 0 0 5 0 0 0 0
1220	467437 160 0 1841 0 1.001395747601 9 0 0 0 0
1221	467597 160 0 1841 0 1.001395747601 9 0 0 0 0
1222	467757 100 1354 1841 1.00000581 1.001395747601 4 0 0 0 0
1223	467857 111 1354 1841 1.00000581 1.001395747601 4 368 1168 3872 4228096
1224	467968 168 1354 1354 0.1 1 10 0 0 0 0
1225	468136 111 1354 1841 1.00000581 1.001395747601 4 368 1168 3872 4228096
1226	468247 168 1354 1354 0.1 1 10 0 0 0 0
1231	468415 107 1358 1843 1.00001157 1.001408067601 4 64 146 502 68044
1232	468522 133 1346 1855 1.00000581 1.001420487601 5 64 146 648 89360
1233	468655 133 1346 1855 1.00000581 1.001420487601 5 64 146 648 89360
1236	468788 107 1354 1841 1.00000581 1.001395747601 4 46 146 484 66064
1242	468895 60 0 0 0 0 5 0 0 0 0
1243	468955 60 0 0 0 0 5 0 0 0 0
1270	469015 25 1381 1381 1.00002399 1.00002399 1 28 28 28 784
1271	469040 79 1349 1825 1.00000581 1.001377567601 3 28 28 84 2352
1273	469119 344 1453 1886 1.000051881446 1.001469967601 12 28 128 772 74472
1274	469463 228 1451 1884 1.000051881446 1.001469967601 8 28 128 660 71336
1276	469691 1635 0 1994 0 1.002584934495 63 0 4 59 133
1277	471326 1719 0 1994 0 1.002584934495 63 0 3792 40960 99328000
1278	473045 972 28 1994 0.054488317738 1.002584934495 29 0 1.001705171018 2.011171257629 2.0037134650181
1279	474017 844 26 1888 0.054488317738 1.001469967601 29 272 1312 13760 9158656
1280	474861 192 53 1449 0.1 1 10 3840 28800 74880 1183334400
1281	475053 853 28 1994 0.054488317738 1.002584934495 29 272 1312 13760 9158656
1282	475906 192 55 1612 0.1 1 10 3840 28800 74880 1183334400
1287	476098 1041 35 2029 0.054534317738 1.002690698261 28 4.6e-05 0.00108152661 0.00572927627 3.0827014987303e-06
1288	477139 1579 0 2029 0 1.002690698261 59 0 2 45 61
1289	478718 809 26 2029 0.054488317738 1.002690698261 29 0 31 420 8390
1290	479527 2402 0 2029 0 1.002690698261 89 0 1 44 44
1291	481929 9138 0 2029 0 1.002690698261 336 0 2 210 384
1293	491067 13 0 0 0 0 1 31 31 31 961
1294	491080 1136 35 2001 0.054534317738 1.002642934495 40 14 164 1724 118560
1295	492216 797 168 2001 0.314772576627 1.002642934495 28 14 164 1116 87328
1296	493013 339 35 1980 0.054534317738 1.002134934495 12 48 64 608 31232
1297	493352 339 35 1980 0.054534317738 1.002134934495 12 48 64 608 31232
1299	493691 1136 35 2001 0.054534317738 1.002642934495 40 14 164 1724 118560
1300	494827 877 154 2029 0.314596576627 1.002690698261 31 14 164 924 52120
1301	495704 793 191 2029 0.314820110965 1.002690698261 28 14 164 828 49048
1302	496497 84 154 293 0.314596576627 0.357423797067 3 32 32 96 3072
1303	496581 84 154 293 0.314596576627 0.357423797067 3 32 32 96 3072
1305	496665 877 154 2029 0.314596576627 1.002690698261 31 14 164 924 52120
1310	497542 1551 0 2029 0 1.002690698261 58 0 1 28 28
1311	499093 1372 28 1994 0.054488317738 1.002584934495 40 24000000 24000000 960000000 2.304e+16
1312	500465 1410 168 2023 0.314772576627 1.002686934495 48 0 4.4e-05 0.000704 3.0976e-08
1313	501875 88 1449 1747 1.000051881446 1.001311407601 3 36 136 208 21088
1314	501963 1134 28 1994 0.054488317738 1.002584934495 40 14 164 1724 118560
1315	503097 140 1524 1888 1.000063501446 1.001469967601 5 54 136 516 61320
1316	503237 877 154 2029 0.314596576627 1.002690698261 31 14 164 924 52120
1324	504114 2222 0 2002 0 1.002642934495 83 0 3 202 524
1325	506336 3888 0 2028 0 1.002690698261 143 0 3 165 351
1326	510224 4372 29 2002 0.054488317738 1.002642934495 160 0 2 160 240
1327	514596 12 0 0 0 0 1 0 0 0 0
1330	514608 144 0 1752 0 1.001311407601 8 0 0 0 0
1331	514752 144 0 1752 0 1.001311407601 8 0 0 0 0
1332	514896 84 1456 1752 1.000051881446 1.001311407601 3 0 0 0 0
1333	514980 91 1456 1752 1.000051881446 1.001311407601 3 368 1168 1904 1635072
1334	515071 168 1456 1456 0.1 1 10 0 0 0 0
1335	515239 91 1456 1752 1.000051881446 1.001311407601 3 368 1168 1904 1635072
1336	515330 168 1456 1456 0.1 1 10 0 0 0 0
1341	515498 88 1469 1762 1.000057641446 1.001323727601 3 64 146 274 29508
1342	515586 140 1519 1883 1.000063501446 1.001469967601 5 64 146 566 72140
1343	515726 140 1519 1883 1.000063501446 1.001469967601 5 64 146 566 72140
1346	515866 88 1456 1752 1.000051881446 1.001311407601 3 46 146 238 25548
1352	515954 116 0 1651 0 1.000319644408 7 0 0 0 0
1353	516070 116 0 1651 0 1.000319644408 7 0 0 0 0
1354	516186 56 1457 1651 1.000051881446 1.000319644408 2 0 0 0 0
1355	516242 60 1457 1651 1.000051881446 1.000319644408 2 368 368 736 270848
1356	516302 168 1457 1457 0.1 1 10 0 0 0 0
1357	516470 60 1457 1651 1.000051881446 1.000319644408 2 368 368 736 270848
1358	516530 168 1457 1457 0.1 1 10 0 0 0 0
1363	516698 58 1470 1657 1.000057641446 1.000325404408 2 64 64 128 8192
1368	516756 58 1457 1651 1.000051881446 1.000319644408 2 46 46 92 4232
1374	516814 116 0 1652 0 1.000319644408 7 0 0 0 0
1375	516930 116 0 1652 0 1.000319644408 7 0 0 0 0
1376	517046 56 1458 1652 1.000051881446 1.000319644408 2 0 0 0 0
1377	517102 60 1458 1652 1.000051881446 1.000319644408 2 368 368 736 270848
1378	517162 168 1458 1458 0.1 1 10 0 0 0 0
1379	517330 60 1458 1652 1.000051881446 1.000319644408 2 368 368 736 270848
1380	517390 168 1458 1458 0.1 1 10 0 0 0 0
1385	517558 58 1471 1658 1.000057641446 1.000325404408 2 64 64 128 8192
1390	517616 58 1458 1652 1.000051881446 1.000319644408 2 46 46 92 4232
11	517674 40 2036 2036 1.002759312626 1.002759312626 1 2273029.8629091 2273029.8629091 2273029.8629091 5166664757676.4
13	517714 40 2036 2036 1.002759312626 1.002759312626 1 1797549.1262801 1797549.1262801 1797549.1262801 3231182861390.4
76	517754 174 2036 2036 0.1 1.002759312626 11 0 0 0 0
81	517928 174 2036 2036 0.1 1.002759312626 11 0 0 0 0
96	518102 87 2036 2036 0.7 1.002759312626 5 0 8320 8320 69222400
98	518189 87 2036 2036 0.7 1.002759312626 5 0 8320 8320 69222400
161	518276 185 2036 2036 0.1 1.002759312626 11 0 0 0 0
166	518461 185 2036 2036 0.1 1.002759312626 11 0 0 0 0
181	518646 92 2036 2036 0.7 1.002759312626 5 0 2560 2560 6553600
183	518738 92 2036 2036 0.7 1.002759312626 5 0 2560 2560 6553600
246	518830 185 2036 2036 0.1 1.002759312626 11 0 0 0 0
251	519015 185 2036 2036 0.1 1.002759312626 11 0 0 0 0
266	519200 92 2036 2036 0.7 1.002759312626 5 0 8320 8320 69222400
268	519292 92 2036 2036 0.7 1.002759312626 5 0 8320 8320 69222400
331	519384 185 2036 2036 0.1 1.002759312626 11 0 0 0 0
336	519569 185 2036 2036 0.1 1.002759312626 11 0 0 0 0
351	519754 185 2036 2036 0.1 1.002759312626 11 0 0 0 0
353	519939 185 2036 2036 0.1 1.002759312626 11 0 0 0 0
384	520124 185 2036 2036 0.1 1.002759312626 11 0 0 0 0
389	520309 185 2036 2036 0.1 1.002759312626 11 0 0 0 0
404	520494 185 2036 2036 0.1 1.002759312626 11 0 0 0 0
406	520679 185 2036 2036 0.1 1.002759312626 11 0 0 0 0
437	520864 185 2036 2036 0.1 1.002759312626 11 0 0 0 0
442	521049 185 2036 2036 0.1 1.002759312626 11 0 0 0 0
457	521234 41 2036 2036 1.002759312626 1.002759312626 1 1403248.0276122 1403248.0276122 1403248.0276122 1969105026997.6
459	521275 41 2036 2036 1.002759312626 1.002759312626 1 1403248.0276122 1403248.0276122 1403248.0276122 1969105026997.6
490	521316 185 2036 2036 0.1 1.002759312626 11 0 0 0 0
495	521501 41 2036 2036 1.002759312626 1.002759312626 1 289927.27843228 289927.27843228 289927.27843228 84057826779.147
510	521542 185 2036 2036 0.1 1.002759312626 11 0 0 0 0
512	521727 185 2036 2036 0.1 1.002759312626 11 0 0 0 0
543	521912 185 2036 2036 0.1 1.002759312626 11 0 0 0 0
548	522097 185 2036 2036 0.1 1.002759312626 11 0 0 0 0
563	522282 185 2036 2036 0.1 1.002759312626 11 0 0 0 0
565	522467 185 2036 2036 0.1 1.002759312626 11 0 0 0 0
596	522652 185 2036 2036 0.1 1.002759312626 11 0 0 0 0
601	522837 185 2036 2036 0.1 1.002759312626 11 0 0 0 0
616	523022 185 2036 2036 0.1 1.002759312626 11 0 0 0 0
618	523207 185 2036 2036 0.1 1.002759312626 11 0 0 0 0
649	523392 185 2036 2036 0.1 1.002759312626 11 0 0 0 0
654	523577 185 2036 2036 0.1 1.002759312626 11 0 0 0 0
669	523762 41 2036 2036 1.002759312626 1.002759312626 1 1826541.8541233 1826541.8541233 1826541.8541233 3336255144864.4
671	523803 41 2036 2036 1.002759312626 1.002759312626 1 1826541.8541233 1826541.8541233 1826541.8541233 3336255144864.4
702	523844 185 2036 2036 0.1 1.002759312626 11 0 0 0 0
707	524029 41 2036 2036 1.002759312626 1.002759312626 1 289927.27843228 289927.27843228 289927.27843228 84057826779.147
722	524070 185 2036 2036 0.1 1.002759312626 11 0 0 0 0
724	524255 185 2036 2036 0.1 1.002759312626 11 0 0 0 0
755	524440 185 2036 2036 0.1 1.002759312626 11 0 0 0 0
760	524625 185 2036 2036 0.1 1.002759312626 11 0 0 0 0
775	524810 41 2036 2036 1.002759312626 1.002759312626 1 1536614.5756911 1536614.5756911 1536614.5756911 2361184354226.2
777	524851 41 2036 2036 1.002759312626 1.002759312626 1 1536614.5756911 1536614.5756911 1536614.5756911 2361184354226.2
797	524892 41 2036 2036 1.002759312626 1.002759312626 1 556660.37458997 556660.37458997 556660.37458997 309870772638.65
799	524933 41 2036 2036 1.002759312626 1.002759312626 1 556660.37458997 556660.37458997 556660.37458997 309870772638.65
819	524974 41 2036 2036 1.002759312626 1.002759312626 1 133366.54807885 133366.54807885 133366.54807885 17786636146.468
821	525015 41 2036 2036 1.002759312626 1.002759312626 1 133366.54807885 133366.54807885 133366.54807885 17786636146.468
856	525056 41 2036 2036 1.002759312626 1.002759312626 1 133366.54807885 133366.54807885 133366.54807885 17786636146.468
858	525097 41 2036 2036 1.002759312626 1.002759312626 1 133366.54807885 133366.54807885 133366.54807885 17786636146.468
878	525138 41 2036 2036 1.002759312626 1.002759312626 1 556660.37458997 556660.37458997 556660.37458997 309870772638.65
880	525179 41 2036 2036 1.002759312626 1.002759312626 1 556660.37458997 556660.37458997 556660.37458997 309870772638.65
915	525220 41 2036 2036 1.002759312626 1.002759312626 1 1403248.0276122 1403248.0276122 1403248.0276122 1969105026997.6
917	525261 41 2036 2036 1.002759312626 1.002759312626 1 1403248.0276122 1403248.0276122 1403248.0276122 1969105026997.6
937	525302 41 2036 2036 1.002759312626 1.002759312626 1 133366.54807885 133366.54807885 133366.54807885 17786636146.468
939	525343 41 2036 2036 1.002759312626 1.002759312626 1 133366.54807885 133366.54807885 133366.54807885 17786636146.468
974	525384 41 2036 2036 1.002759312626 1.002759312626 1 1403248.0276122 1403248.0276122 1403248.0276122 1969105026997.6
976	525425 41 2036 2036 1.002759312626 1.002759312626 1 1403248.0276122 1403248.0276122 1403248.0276122 1969105026997.6
996	525466 41 2036 2036 1.002759312626 1.002759312626 1 133366.54807885 133366.54807885 133366.54807885 17786636146.468
998	525507 41 2036 2036 1.002759312626 1.002759312626 1 133366.54807885 133366.54807885 133366.54807885 17786636146.468
1033	525548 42 2036 2036 1.002759312626 1.002759312626 1 133366.54807885 133366.54807885 133366.54807885 17786636146.468
1035	525590 42 2036 2036 1.002759312626 1.002759312626 1 133366.54807885 133366.54807885 133366.54807885 17786636146.468
1055	525632 42 2036 2036 1.002759312626 1.002759312626 1 556660.37458997 556660.37458997 556660.37458997 309870772638.65
1057	525674 42 2036 2036 1.002759312626 1.002759312626 1 556660.37458997 556660.37458997 556660.37458997 309870772638.65
1092	525716 42 2036 2036 1.002759312626 1.002759312626 1 133366.54807885 133366.54807885 133366.54807885 17786636146.468
1094	525758 42 2036 2036 1.002759312626 1.002759312626 1 133366.54807885 133366.54807885 133366.54807885 17786636146.468
1114	525800 42 2036 2036 1.002759312626 1.002759312626 1 1403248.0276122 1403248.0276122 1403248.0276122 1969105026997.6
1116	525842 42 2036 2036 1.002759312626 1.002759312626 1 1403248.0276122 1403248.0276122 1403248.0276122 1969105026997.6
1136	525884 41 2036 2036 1.002759312626 1.002759312626 1 979954.2011011 979954.2011011 979954.2011011 960310236255.69
1138	525925 41 2036 2036 1.002759312626 1.002759312626 1 979954.2011011 979954.2011011 979954.2011011 960310236255.69
1158	525966 196 2036 2036 0.1 1.002759312626 11 0 0 0 0
1160	526162 196 2036 2036 0.1 1.002759312626 11 0 0 0 0
1180	526358 196 2036 2036 0.1 1.002759312626 11 0 0 0 0
1182	526554 196 2036 2036 0.1 1.002759312626 11 0 0 0 0
1202	526750 196 2036 2036 0.1 1.002759312626 11 0 0 0 0
1204	526946 196 2036 2036 0.1 1.002759312626 11 0 0 0 0
1224	527142 42 2036 2036 1.002759312626 1.002759312626 1 1403248.0276122 1403248.0276122 1403248.0276122 1969105026997.6
1226	527184 42 2036 2036 1.002759312626 1.002759312626 1 1403248.0276122 1403248.0276122 1403248.0276122 1969105026997.6
1246	527226 196 2036 2036 0.1 1.002759312626 11 0 0 0 0
1248	527422 196 2036 2036 0.1 1.002759312626 11 0 0 0 0
1280	527618 42 2036 2036 1.002759312626 1.002759312626 1 2273029.8629091 2273029.8629091 2273029.8629091 5166664757676.4
1282	527660 42 2036 2036 1.002759312626 1.002759312626 1 2273029.8629091 2273029.8629091 2273029.8629091 5166664757676.4
1334	527702 42 2036 2036 1.002759312626 1.002759312626 1 690026.92266882 690026.92266882 690026.92266882 476137154007.8
1336	527744 42 2036 2036 1.002759312626 1.002759312626 1 690026.92266882 690026.92266882 690026.92266882 476137154007.8
1356	527786 41 2036 2036 1.002759312626 1.002759312626 1 266733.0961577 266733.0961577 266733.0961577 71146544585.87
1358	527827 41 2036 2036 1.002759312626 1.002759312626 1 266733.0961577 266733.0961577 266733.0961577 71146544585.87
1378	527868 41 2036 2036 1.002759312626 1.002759312626 1 266733.0961577 266733.0961577 266733.0961577 71146544585.87
1380	527909 41 2036 2036 1.002759312626 1.002759312626 1 266733.0961577 266733.0961577 266733.0961577 71146544585.87

